@<TRIPOS>MOLECULE
MolPort-028-723-381 76124863 CSC046086915 CSSS00046086915 MCULE-5292930431 PubChem-72847635 ZINC000076124863 ZINC76124863
 27 29 0 0 0
SMALL
GASTEIGER

@<TRIPOS>ATOM
      1 O          12.0023   40.7955    7.0553 O.2     1  UNL1       -0.2525
      2 C          11.8619   41.7913    6.2948 C.2     1  UNL1        0.3045
      3 N          10.6246   42.0031    5.6127 N.am    1  UNL1       -0.2887
      4 N          12.9352   42.7184    6.0896 N.am    1  UNL1       -0.2682
      5 H          10.5607   42.7498    4.9742 H       1  UNL1        0.1510
      6 H          12.7649   43.4581    5.4626 H       1  UNL1        0.1564
      7 C          14.2315   42.6814    6.7020 C.ar    1  UNL1        0.0546
      8 C          14.4906   41.7042    7.6692 C.ar    1  UNL1        0.0516
      9 C          15.7407   41.6279    8.2922 C.ar    1  UNL1        0.1396
     10 C          16.7447   42.5427    7.9371 C.ar    1  UNL1        0.0370
     11 C          16.4952   43.5209    6.9719 C.ar    1  UNL1        0.0044
     12 C          15.2431   43.5899    6.3564 C.ar    1  UNL1        0.0149
     13 O          15.9585   40.6343    9.2528 O.3     1  UNL1       -0.4791
     14 C          15.0201   39.6008    9.5325 C.3     1  UNL1        0.1659
     15 C          15.6621   38.5271   10.3991 C.3     1  UNL1        0.0435
     16 C          14.9661   38.5804   11.7422 C.3     1  UNL1        0.0038
     17 C          13.6233   39.2146   11.4723 C.3     1  UNL1        0.0038
     18 C          13.8638   40.1743   10.3297 C.3     1  UNL1        0.0435
     19 C           9.4538   41.1622    5.8207 C.3     1  UNL1        0.0924
     20 C           8.2889   41.9919    6.3356 C.3     1  UNL1        0.0386
     21 C           8.0982   41.7808    7.8274 C.3     1  UNL1        0.0740
     22 O          10.6321   43.7123   10.2655 O.3     1  UNL1       -0.3508
     23 C           8.4214   43.6041    9.2621 C.3     1  UNL1        0.1046
     24 C           9.3302   44.2441   10.3251 C.3     1  UNL1        0.1595
     25 C          10.5263   42.3468   10.5912 C.3     1  UNL1        0.1595
     26 C           9.6908   41.5914    9.5439 C.3     1  UNL1        0.1046
     27 N           9.1114   42.5162    8.5639 N.3     1  UNL1       -0.2684
@<TRIPOS>BOND
     1     2     3   am
     2     2     4   am
     3    19     3    1
     4    19    20    1
     5    20    21    1
     6    21    27    1
     7    23    27    1
     8    23    24    1
     9    24    22    1
    10    25    22    1
    11    25    26    1
    12    26    27    1
    13     8     9   ar
    14     9    13    1
    15    14    13    1
    16    14    15    1
    17    15    16    1
    18    16    17    1
    19    17    18    1
    20    18    14    1
    21    10    11   ar
    22    12     7   ar
    23     4     7    1
    24     2     1    2
    25     7     8   ar
    26     9    10   ar
    27    11    12   ar
    28     3     5    1
    29     4     6    1
@<TRIPOS>MOLECULE
MolPort-028-723-381 76124863 CSC046086915 CSSS00046086915 MCULE-5292930431 PubChem-72847635 ZINC000076124863 ZINC76124863
 27 29 0 0 0
SMALL
GASTEIGER

@<TRIPOS>ATOM
      1 O          10.5510   42.3895   10.2803 O.2     1  UNL1       -0.2525
      2 C          10.2136   41.2574   10.7213 C.2     1  UNL1        0.3045
      3 N           8.8871   41.0438   11.2068 N.am    1  UNL1       -0.2887
      4 N          11.1489   40.1722   10.7566 N.am    1  UNL1       -0.2682
      5 H           8.6667   40.1715   11.6063 H       1  UNL1        0.1510
      6 H          10.8256   39.3239   11.1377 H       1  UNL1        0.1564
      7 C          12.5065   40.1925   10.2948 C.ar    1  UNL1        0.0546
      8 C          12.7930   40.8175    9.0763 C.ar    1  UNL1        0.0516
      9 C          14.1025   40.8642    8.5866 C.ar    1  UNL1        0.1396
     10 C          15.1382   40.2784    9.3317 C.ar    1  UNL1        0.0370
     11 C          14.8615   39.6532   10.5496 C.ar    1  UNL1        0.0044
     12 C          13.5503   39.6106   11.0296 C.ar    1  UNL1        0.0149
     13 O          14.3457   41.5005    7.3646 O.3     1  UNL1       -0.4791
     14 C          14.4322   42.9148    7.2253 C.3     1  UNL1        0.1659
     15 C          15.8857   43.3618    7.2842 C.3     1  UNL1        0.0435
     16 C          16.2317   43.8938    5.9100 C.3     1  UNL1        0.0038
     17 C          14.9133   44.2873    5.2894 C.3     1  UNL1        0.0038
     18 C          13.9042   43.3184    5.8616 C.3     1  UNL1        0.0435
     19 C           7.8468   42.0607   11.1363 C.3     1  UNL1        0.0924
     20 C           6.4724   41.4239   11.2632 C.3     1  UNL1        0.0386
     21 C           5.7676   41.3971    9.9182 C.3     1  UNL1        0.0740
     22 O           5.1324   44.9312    8.1288 O.3     1  UNL1       -0.3508
     23 C           6.2649   42.7812    8.0950 C.3     1  UNL1        0.1046
     24 C           5.8895   44.0585    7.3248 C.3     1  UNL1        0.1595
     25 C           3.9270   44.2662    8.4232 C.3     1  UNL1        0.1595
     26 C           4.1830   43.0019    9.2609 C.3     1  UNL1        0.1046
     27 N           5.6202   42.7499    9.4106 N.3     1  UNL1       -0.2684
@<TRIPOS>BOND
     1     2     3   am
     2     2     4   am
     3    19     3    1
     4    19    20    1
     5    20    21    1
     6    21    27    1
     7    23    27    1
     8    23    24    1
     9    24    22    1
    10    25    22    1
    11    25    26    1
    12    26    27    1
    13     8     9   ar
    14     9    13    1
    15    14    13    1
    16    14    15    1
    17    15    16    1
    18    16    17    1
    19    17    18    1
    20    18    14    1
    21    10    11   ar
    22    12     7   ar
    23     4     7    1
    24     2     1    2
    25     7     8   ar
    26     9    10   ar
    27    11    12   ar
    28     3     5    1
    29     4     6    1
@<TRIPOS>MOLECULE
MolPort-028-723-381 76124863 CSC046086915 CSSS00046086915 MCULE-5292930431 PubChem-72847635 ZINC000076124863 ZINC76124863
 27 29 0 0 0
SMALL
GASTEIGER

@<TRIPOS>ATOM
      1 O          11.8248   41.1714    7.4491 O.2     1  UNL1       -0.2525
      2 C          11.7921   41.8989    6.4198 C.2     1  UNL1        0.3045
      3 N          10.5864   42.0144    5.6621 N.am    1  UNL1       -0.2887
      4 N          12.9570   42.6103    5.9834 N.am    1  UNL1       -0.2682
      5 H          10.6033   42.5352    4.8269 H       1  UNL1        0.1510
      6 H          12.8673   43.1384    5.1574 H       1  UNL1        0.1564
      7 C          14.2398   42.6335    6.6242 C.ar    1  UNL1        0.0546
      8 C          14.5150   41.6825    7.6128 C.ar    1  UNL1        0.0516
      9 C          15.7530   41.6648    8.2638 C.ar    1  UNL1        0.1396
     10 C          16.7285   42.6123    7.9152 C.ar    1  UNL1        0.0370
     11 C          16.4630   43.5646    6.9287 C.ar    1  UNL1        0.0044
     12 C          15.2230   43.5751    6.2853 C.ar    1  UNL1        0.0149
     13 O          15.9876   40.6958    9.2453 O.3     1  UNL1       -0.4791
     14 C          15.0858   39.6287    9.5192 C.3     1  UNL1        0.1659
     15 C          15.7598   38.5806   10.3927 C.3     1  UNL1        0.0435
     16 C          15.0513   38.6101   11.7300 C.3     1  UNL1        0.0038
     17 C          13.6883   39.1940   11.4481 C.3     1  UNL1        0.0038
     18 C          13.9026   40.1603   10.3059 C.3     1  UNL1        0.0435
     19 C           9.3335   41.3952    6.0719 C.3     1  UNL1        0.0924
     20 C           8.7282   42.1476    7.2457 C.3     1  UNL1        0.0386
     21 C           7.3452   41.6111    7.5709 C.3     1  UNL1        0.0740
     22 O           4.8102   44.3549    9.0339 O.3     1  UNL1       -0.3508
     23 C           6.2106   43.6241    7.1871 C.3     1  UNL1        0.1046
     24 C           5.1105   44.5807    7.6774 C.3     1  UNL1        0.1595
     25 C           4.2828   43.0525    9.1198 C.3     1  UNL1        0.1595
     26 C           5.3329   42.0029    8.7179 C.3     1  UNL1        0.1046
     27 N           6.5549   42.6429    8.2194 N.3     1  UNL1       -0.2684
@<TRIPOS>BOND
     1     2     3   am
     2     2     4   am
     3    19     3    1
     4    19    20    1
     5    20    21    1
     6    21    27    1
     7    23    27    1
     8    23    24    1
     9    24    22    1
    10    25    22    1
    11    25    26    1
    12    26    27    1
    13     8     9   ar
    14     9    13    1
    15    14    13    1
    16    14    15    1
    17    15    16    1
    18    16    17    1
    19    17    18    1
    20    18    14    1
    21    10    11   ar
    22    12     7   ar
    23     4     7    1
    24     2     1    2
    25     7     8   ar
    26     9    10   ar
    27    11    12   ar
    28     3     5    1
    29     4     6    1
@<TRIPOS>MOLECULE
MolPort-028-723-381 76124863 CSC046086915 CSSS00046086915 MCULE-5292930431 PubChem-72847635 ZINC000076124863 ZINC76124863
 27 29 0 0 0
SMALL
GASTEIGER

@<TRIPOS>ATOM
      1 O          10.1735   41.4008    8.0861 O.2     1  UNL1       -0.2525
      2 C           9.4778   40.3543    8.1894 C.2     1  UNL1        0.3045
      3 N          10.1093   39.0940    8.4212 N.am    1  UNL1       -0.2887
      4 N           8.0509   40.4033    8.0652 N.am    1  UNL1       -0.2682
      5 H           9.5516   38.2829    8.4327 H       1  UNL1        0.1510
      6 H           7.5731   39.5450    8.1304 H       1  UNL1        0.1564
      7 C           7.2463   41.5719    7.8559 C.ar    1  UNL1        0.0546
      8 C           6.2850   41.9072    8.8156 C.ar    1  UNL1        0.0516
      9 C           5.4785   43.0388    8.6555 C.ar    1  UNL1        0.1396
     10 C           5.6416   43.8460    7.5185 C.ar    1  UNL1        0.0370
     11 C           6.5994   43.5195    6.5558 C.ar    1  UNL1        0.0044
     12 C           7.3991   42.3865    6.7240 C.ar    1  UNL1        0.0149
     13 O           4.5307   43.3390    9.6397 O.3     1  UNL1       -0.4791
     14 C           3.4758   42.4543   10.0024 C.3     1  UNL1        0.1659
     15 C           3.8804   41.0127    9.7302 C.3     1  UNL1        0.0435
     16 C           3.9916   40.3318   11.0774 C.3     1  UNL1        0.0038
     17 C           3.1279   41.1459   12.0099 C.3     1  UNL1        0.0038
     18 C           3.2188   42.5635   11.4935 C.3     1  UNL1        0.0435
     19 C          11.5426   38.9572    8.6413 C.3     1  UNL1        0.0924
     20 C          11.8693   39.1040   10.1184 C.3     1  UNL1        0.0386
     21 C          12.9360   40.1644   10.3289 C.3     1  UNL1        0.0740
     22 O          16.0053   38.3363   12.1545 O.3     1  UNL1       -0.3508
     23 C          13.7162   38.2054   11.3491 C.3     1  UNL1        0.1046
     24 C          14.9428   37.4517   11.8903 C.3     1  UNL1        0.1595
     25 C          16.3844   38.8934   10.9185 C.3     1  UNL1        0.1595
     26 C          15.2457   39.7354   10.3186 C.3     1  UNL1        0.1046
     27 N          14.0241   39.6200   11.1222 N.3     1  UNL1       -0.2684
@<TRIPOS>BOND
     1     2     3   am
     2     2     4   am
     3    19     3    1
     4    19    20    1
     5    20    21    1
     6    21    27    1
     7    23    27    1
     8    23    24    1
     9    24    22    1
    10    25    22    1
    11    25    26    1
    12    26    27    1
    13     8     9   ar
    14     9    13    1
    15    14    13    1
    16    14    15    1
    17    15    16    1
    18    16    17    1
    19    17    18    1
    20    18    14    1
    21    10    11   ar
    22    12     7   ar
    23     4     7    1
    24     2     1    2
    25     7     8   ar
    26     9    10   ar
    27    11    12   ar
    28     3     5    1
    29     4     6    1
@<TRIPOS>MOLECULE
MolPort-028-723-381 76124863 CSC046086915 CSSS00046086915 MCULE-5292930431 PubChem-72847635 ZINC000076124863 ZINC76124863
 27 29 0 0 0
SMALL
GASTEIGER

@<TRIPOS>ATOM
      1 O           9.6053   40.9923    9.3393 O.2     1  UNL1       -0.2525
      2 C          10.1657   42.1133    9.2009 C.2     1  UNL1        0.3045
      3 N          11.5851   42.2242    9.3187 N.am    1  UNL1       -0.2887
      4 N           9.3967   43.2934    8.9370 N.am    1  UNL1       -0.2682
      5 H          11.9930   43.1190    9.2720 H       1  UNL1        0.1510
      6 H           9.8966   44.1387    8.8666 H       1  UNL1        0.1564
      7 C           7.9751   43.3720    8.7648 C.ar    1  UNL1        0.0546
      8 C           7.2288   42.1888    8.7857 C.ar    1  UNL1        0.0516
      9 C           5.8396   42.2161    8.6242 C.ar    1  UNL1        0.1396
     10 C           5.1910   43.4479    8.4424 C.ar    1  UNL1        0.0370
     11 C           5.9280   44.6342    8.4212 C.ar    1  UNL1        0.0044
     12 C           7.3151   44.5964    8.5820 C.ar    1  UNL1        0.0149
     13 O           5.1311   41.0101    8.6532 O.3     1  UNL1       -0.4791
     14 C           4.2605   40.6423    9.7180 C.3     1  UNL1        0.1659
     15 C           4.8764   41.0219   11.0568 C.3     1  UNL1        0.0435
     16 C           4.0077   42.1162   11.6390 C.3     1  UNL1        0.0038
     17 C           2.6608   41.9525   10.9779 C.3     1  UNL1        0.0038
     18 C           2.9627   41.4184    9.5965 C.3     1  UNL1        0.0435
     19 C          12.4549   41.0709    9.5047 C.3     1  UNL1        0.0924
     20 C          13.2389   40.7866    8.2339 C.3     1  UNL1        0.0386
     21 C          12.9126   41.8117    7.1619 C.3     1  UNL1        0.0740
     22 O          15.7875   44.5982    6.9055 O.3     1  UNL1       -0.3508
     23 C          15.1963   42.2880    7.3740 C.3     1  UNL1        0.1046
     24 C          16.3154   43.3092    7.1084 C.3     1  UNL1        0.1595
     25 C          15.0086   44.5364    5.7345 C.3     1  UNL1        0.1595
     26 C          13.8097   43.5903    5.9168 C.3     1  UNL1        0.1046
     27 N          13.8747   42.8989    7.2087 N.3     1  UNL1       -0.2684
@<TRIPOS>BOND
     1     2     3   am
     2     2     4   am
     3    19     3    1
     4    19    20    1
     5    20    21    1
     6    21    27    1
     7    23    27    1
     8    23    24    1
     9    24    22    1
    10    25    22    1
    11    25    26    1
    12    26    27    1
    13     8     9   ar
    14     9    13    1
    15    14    13    1
    16    14    15    1
    17    15    16    1
    18    16    17    1
    19    17    18    1
    20    18    14    1
    21    10    11   ar
    22    12     7   ar
    23     4     7    1
    24     2     1    2
    25     7     8   ar
    26     9    10   ar
    27    11    12   ar
    28     3     5    1
    29     4     6    1
@<TRIPOS>MOLECULE
MolPort-028-723-381 76124863 CSC046086915 CSSS00046086915 MCULE-5292930431 PubChem-72847635 ZINC000076124863 ZINC76124863
 27 29 0 0 0
SMALL
GASTEIGER

@<TRIPOS>ATOM
      1 O          10.7444   41.6023    7.8358 O.2     1  UNL1       -0.2525
      2 C          10.7102   41.7811    6.5881 C.2     1  UNL1        0.3045
      3 N           9.4829   41.6210    5.8747 N.am    1  UNL1       -0.2887
      4 N          11.8943   42.1340    5.8620 N.am    1  UNL1       -0.2682
      5 H           9.4946   41.7014    4.8936 H       1  UNL1        0.1510
      6 H          11.8004   42.2324    4.8869 H       1  UNL1        0.1564
      7 C          13.2016   42.3587    6.4071 C.ar    1  UNL1        0.0546
      8 C          13.7126   41.4393    7.3296 C.ar    1  UNL1        0.0516
      9 C          14.9837   41.6157    7.8864 C.ar    1  UNL1        0.1396
     10 C          15.7528   42.7281    7.5096 C.ar    1  UNL1        0.0370
     11 C          15.2511   43.6504    6.5886 C.ar    1  UNL1        0.0044
     12 C          13.9800   43.4663    6.0392 C.ar    1  UNL1        0.0149
     13 O          15.4574   40.6718    8.8040 O.3     1  UNL1       -0.4791
     14 C          14.6549   39.6157    9.3211 C.3     1  UNL1        0.1659
     15 C          15.5197   38.6211   10.0819 C.3     1  UNL1        0.0435
     16 C          15.1152   38.7191   11.5372 C.3     1  UNL1        0.0038
     17 C          13.7133   39.2782   11.5262 C.3     1  UNL1        0.0038
     18 C          13.6594   40.1820   10.3160 C.3     1  UNL1        0.0435
     19 C           8.2151   41.3438    6.5359 C.3     1  UNL1        0.0924
     20 C           7.8111   42.5120    7.4205 C.3     1  UNL1        0.0386
     21 C           6.3211   42.4738    7.7119 C.3     1  UNL1        0.0740
     22 O           5.8521   41.7771   11.6349 O.3     1  UNL1       -0.3508
     23 C           5.1205   41.3239    9.3622 C.3     1  UNL1        0.1046
     24 C           5.0549   40.9261   10.8465 C.3     1  UNL1        0.1595
     25 C           7.1835   41.5818   11.2212 C.3     1  UNL1        0.1595
     26 C           7.3786   42.0201    9.7599 C.3     1  UNL1        0.1046
     27 N           6.0999   42.3920    9.1451 N.3     1  UNL1       -0.2684
@<TRIPOS>BOND
     1     2     3   am
     2     2     4   am
     3    19     3    1
     4    19    20    1
     5    20    21    1
     6    21    27    1
     7    23    27    1
     8    23    24    1
     9    24    22    1
    10    25    22    1
    11    25    26    1
    12    26    27    1
    13     8     9   ar
    14     9    13    1
    15    14    13    1
    16    14    15    1
    17    15    16    1
    18    16    17    1
    19    17    18    1
    20    18    14    1
    21    10    11   ar
    22    12     7   ar
    23     4     7    1
    24     2     1    2
    25     7     8   ar
    26     9    10   ar
    27    11    12   ar
    28     3     5    1
    29     4     6    1
@<TRIPOS>MOLECULE
MolPort-028-723-381 76124863 CSC046086915 CSSS00046086915 MCULE-5292930431 PubChem-72847635 ZINC000076124863 ZINC76124863
 27 29 0 0 0
SMALL
GASTEIGER

@<TRIPOS>ATOM
      1 O          11.5248   41.9032    9.5707 O.2     1  UNL1       -0.2525
      2 C          11.5672   40.8377    8.8978 C.2     1  UNL1        0.3045
      3 N          12.7370   40.0181    8.9267 N.am    1  UNL1       -0.2887
      4 N          10.4571   40.4345    8.0862 N.am    1  UNL1       -0.2682
      5 H          12.7717   39.2262    8.3429 H       1  UNL1        0.1510
      6 H          10.5687   39.6055    7.5671 H       1  UNL1        0.1564
      7 C           9.2006   41.1125    7.9510 C.ar    1  UNL1        0.0546
      8 C           8.2975   41.0743    9.0190 C.ar    1  UNL1        0.0516
      9 C           7.0609   41.7226    8.9338 C.ar    1  UNL1        0.1396
     10 C           6.7280   42.4209    7.7623 C.ar    1  UNL1        0.0370
     11 C           7.6238   42.4652    6.6916 C.ar    1  UNL1        0.0044
     12 C           8.8558   41.8134    6.7857 C.ar    1  UNL1        0.0149
     13 O           6.1880   41.6608   10.0254 O.3     1  UNL1       -0.4791
     14 C           4.8527   41.1761    9.9299 C.3     1  UNL1        0.1659
     15 C           4.4601   40.4581   11.2130 C.3     1  UNL1        0.0435
     16 C           3.3805   41.2948   11.8652 C.3     1  UNL1        0.0038
     17 C           2.7706   42.1040   10.7464 C.3     1  UNL1        0.0038
     18 C           3.9025   42.3485    9.7752 C.3     1  UNL1        0.0435
     19 C          13.8805   40.3033    9.7824 C.3     1  UNL1        0.0924
     20 C          15.0809   40.7139    8.9453 C.3     1  UNL1        0.0386
     21 C          14.6643   41.6748    7.8454 C.3     1  UNL1        0.0740
     22 O          17.7742   43.9518    6.7325 O.3     1  UNL1       -0.3508
     23 C          15.3630   43.6604    6.8178 C.3     1  UNL1        0.1046
     24 C          16.5432   44.6091    6.5481 C.3     1  UNL1        0.1595
     25 C          17.8427   43.5960    8.0929 C.3     1  UNL1        0.1595
     26 C          16.7419   42.5851    8.4563 C.3     1  UNL1        0.1046
     27 N          15.8305   42.3686    7.3276 N.3     1  UNL1       -0.2684
@<TRIPOS>BOND
     1     2     3   am
     2     2     4   am
     3    19     3    1
     4    19    20    1
     5    20    21    1
     6    21    27    1
     7    23    27    1
     8    23    24    1
     9    24    22    1
    10    25    22    1
    11    25    26    1
    12    26    27    1
    13     8     9   ar
    14     9    13    1
    15    14    13    1
    16    14    15    1
    17    15    16    1
    18    16    17    1
    19    17    18    1
    20    18    14    1
    21    10    11   ar
    22    12     7   ar
    23     4     7    1
    24     2     1    2
    25     7     8   ar
    26     9    10   ar
    27    11    12   ar
    28     3     5    1
    29     4     6    1
@<TRIPOS>MOLECULE
MolPort-028-723-381 76124863 CSC046086915 CSSS00046086915 MCULE-5292930431 PubChem-72847635 ZINC000076124863 ZINC76124863
 27 29 0 0 0
SMALL
GASTEIGER

@<TRIPOS>ATOM
      1 O           7.2844   41.1306    7.7485 O.2     1  UNL1       -0.2525
      2 C           7.7425   40.9221    8.9047 C.2     1  UNL1        0.3045
      3 N           6.8603   40.8773   10.0275 N.am    1  UNL1       -0.2887
      4 N           9.1477   40.7393    9.1181 N.am    1  UNL1       -0.2682
      5 H           7.2479   40.7788   10.9271 H       1  UNL1        0.1510
      6 H           9.4385   40.6070   10.0493 H       1  UNL1        0.1564
      7 C          10.1746   40.7289    8.1171 C.ar    1  UNL1        0.0546
      8 C          11.2072   41.6691    8.2032 C.ar    1  UNL1        0.0516
      9 C          12.2317   41.6959    7.2512 C.ar    1  UNL1        0.1396
     10 C          12.2209   40.7645    6.2008 C.ar    1  UNL1        0.0370
     11 C          11.1947   39.8217    6.1075 C.ar    1  UNL1        0.0044
     12 C          10.1752   39.8039    7.0624 C.ar    1  UNL1        0.0149
     13 O          13.2460   42.6514    7.3754 O.3     1  UNL1       -0.4791
     14 C          14.2992   42.7985    6.4287 C.3     1  UNL1        0.1659
     15 C          14.1259   44.0912    5.6448 C.3     1  UNL1        0.0435
     16 C          15.2765   44.9934    6.0364 C.3     1  UNL1        0.0038
     17 C          16.3584   44.0677    6.5374 C.3     1  UNL1        0.0038
     18 C          15.6229   42.9045    7.1622 C.3     1  UNL1        0.0435
     19 C           5.4126   40.9712    9.8991 C.3     1  UNL1        0.0924
     20 C           4.8824   42.1423   10.7101 C.3     1  UNL1        0.0386
     21 C           3.6865   42.7748   10.0199 C.3     1  UNL1        0.0740
     22 O           4.8593   45.8202    7.6863 O.3     1  UNL1       -0.3508
     23 C           5.4144   43.7005    8.7374 C.3     1  UNL1        0.1046
     24 C           5.8024   44.7754    7.7081 C.3     1  UNL1        0.1595
     25 C           3.6446   45.2592    7.2485 C.3     1  UNL1        0.1595
     26 C           3.1250   44.2142    8.2504 C.3     1  UNL1        0.1046
     27 N           4.0995   43.9793    9.3211 N.3     1  UNL1       -0.2684
@<TRIPOS>BOND
     1     2     3   am
     2     2     4   am
     3    19     3    1
     4    19    20    1
     5    20    21    1
     6    21    27    1
     7    23    27    1
     8    23    24    1
     9    24    22    1
    10    25    22    1
    11    25    26    1
    12    26    27    1
    13     8     9   ar
    14     9    13    1
    15    14    13    1
    16    14    15    1
    17    15    16    1
    18    16    17    1
    19    17    18    1
    20    18    14    1
    21    10    11   ar
    22    12     7   ar
    23     4     7    1
    24     2     1    2
    25     7     8   ar
    26     9    10   ar
    27    11    12   ar
    28     3     5    1
    29     4     6    1
@<TRIPOS>MOLECULE
MolPort-028-723-381 76124863 CSC046086915 CSSS00046086915 MCULE-5292930431 PubChem-72847635 ZINC000076124863 ZINC76124863
 27 29 0 0 0
SMALL
GASTEIGER

@<TRIPOS>ATOM
      1 O          11.0542   43.6793    9.7944 O.2     1  UNL1       -0.2525
      2 C          10.3173   42.7225    9.4317 C.2     1  UNL1        0.3045
      3 N           8.9135   42.9244    9.2605 N.am    1  UNL1       -0.2887
      4 N          10.8650   41.4192    9.1970 N.am    1  UNL1       -0.2682
      5 H           8.3494   42.1480    9.0408 H       1  UNL1        0.1510
      6 H          10.2283   40.7131    8.9416 H       1  UNL1        0.1564
      7 C          12.2434   41.0360    9.2952 C.ar    1  UNL1        0.0546
      8 C          12.6354   40.1987   10.3453 C.ar    1  UNL1        0.0516
      9 C          13.9684   39.7967   10.4805 C.ar    1  UNL1        0.1396
     10 C          14.9196   40.2387    9.5473 C.ar    1  UNL1        0.0370
     11 C          14.5370   41.0739    8.4952 C.ar    1  UNL1        0.0044
     12 C          13.2036   41.4710    8.3695 C.ar    1  UNL1        0.0149
     13 O          14.3176   38.9575   11.5441 O.3     1  UNL1       -0.4791
     14 C          14.4919   37.5515   11.4035 C.3     1  UNL1        0.1659
     15 C          13.1716   36.8915   11.0334 C.3     1  UNL1        0.0435
     16 C          13.3323   36.3597    9.6255 C.3     1  UNL1        0.0038
     17 C          14.8190   36.1873    9.4300 C.3     1  UNL1        0.0038
     18 C          15.4545   37.2761   10.2638 C.3     1  UNL1        0.0435
     19 C           8.2805   44.2290    9.3969 C.3     1  UNL1        0.0924
     20 C           7.0823   44.3375    8.4680 C.3     1  UNL1        0.0386
     21 C           6.3497   43.0101    8.3803 C.3     1  UNL1        0.0740
     22 O           4.1095   41.9774   11.5443 O.3     1  UNL1       -0.3508
     23 C           4.2060   42.9594    9.3234 C.3     1  UNL1        0.1046
     24 C           3.3254   42.4089   10.4579 C.3     1  UNL1        0.1595
     25 C           4.8893   40.9020   11.0780 C.3     1  UNL1        0.1595
     26 C           5.8655   41.3610    9.9817 C.3     1  UNL1        0.1046
     27 N           5.6281   42.7615    9.6161 N.3     1  UNL1       -0.2684
@<TRIPOS>BOND
     1     2     3   am
     2     2     4   am
     3    19     3    1
     4    19    20    1
     5    20    21    1
     6    21    27    1
     7    23    27    1
     8    23    24    1
     9    24    22    1
    10    25    22    1
    11    25    26    1
    12    26    27    1
    13     8     9   ar
    14     9    13    1
    15    14    13    1
    16    14    15    1
    17    15    16    1
    18    16    17    1
    19    17    18    1
    20    18    14    1
    21    10    11   ar
    22    12     7   ar
    23     4     7    1
    24     2     1    2
    25     7     8   ar
    26     9    10   ar
    27    11    12   ar
    28     3     5    1
    29     4     6    1
@<TRIPOS>MOLECULE
MolPort-028-723-381 76124863 CSC046086915 CSSS00046086915 MCULE-5292930431 PubChem-72847635 ZINC000076124863 ZINC76124863
 27 29 0 0 0
SMALL
GASTEIGER

@<TRIPOS>ATOM
      1 O          11.2064   42.3258   10.2072 O.2     1  UNL1       -0.2525
      2 C          10.8589   41.4445    9.3751 C.2     1  UNL1        0.3045
      3 N           9.4853   41.3088    9.0068 N.am    1  UNL1       -0.2887
      4 N          11.8241   40.5585    8.7944 N.am    1  UNL1       -0.2682
      5 H           9.2294   40.5719    8.4062 H       1  UNL1        0.1510
      6 H          11.4794   39.8777    8.1724 H       1  UNL1        0.1564
      7 C          13.2396   40.5600    9.0246 C.ar    1  UNL1        0.0546
      8 C          13.7496   39.8003   10.0831 C.ar    1  UNL1        0.0516
      9 C          15.1234   39.7692   10.3447 C.ar    1  UNL1        0.1396
     10 C          15.9968   40.5079    9.5308 C.ar    1  UNL1        0.0370
     11 C          15.4967   41.2683    8.4714 C.ar    1  UNL1        0.0044
     12 C          14.1229   41.2941    8.2190 C.ar    1  UNL1        0.0149
     13 O          15.5916   38.9953   11.4120 O.3     1  UNL1       -0.4791
     14 C          16.0849   37.6689   11.2562 C.3     1  UNL1        0.1659
     15 C          15.2737   36.9254   10.2050 C.3     1  UNL1        0.0435
     16 C          16.2036   36.6742    9.0374 C.3     1  UNL1        0.0038
     17 C          17.5964   36.7254    9.6166 C.3     1  UNL1        0.0038
     18 C          17.5145   37.7207   10.7512 C.3     1  UNL1        0.0435
     19 C           8.4470   42.2133    9.4813 C.3     1  UNL1        0.0924
     20 C           7.0797   41.5595    9.3656 C.3     1  UNL1        0.0386
     21 C           6.3769   41.5443   10.7118 C.3     1  UNL1        0.0740
     22 O           2.5991   42.5341    9.7936 O.3     1  UNL1       -0.3508
     23 C           4.9709   42.9817    9.5102 C.3     1  UNL1        0.1046
     24 C           3.5363   43.2495    9.0246 C.3     1  UNL1        0.1595
     25 C           2.8536   41.1673    9.5723 C.3     1  UNL1        0.1595
     26 C           4.2464   40.7729   10.0919 C.3     1  UNL1        0.1046
     27 N           4.9916   41.9500   10.5506 N.3     1  UNL1       -0.2684
@<TRIPOS>BOND
     1     2     3   am
     2     2     4   am
     3    19     3    1
     4    19    20    1
     5    20    21    1
     6    21    27    1
     7    23    27    1
     8    23    24    1
     9    24    22    1
    10    25    22    1
    11    25    26    1
    12    26    27    1
    13     8     9   ar
    14     9    13    1
    15    14    13    1
    16    14    15    1
    17    15    16    1
    18    16    17    1
    19    17    18    1
    20    18    14    1
    21    10    11   ar
    22    12     7   ar
    23     4     7    1
    24     2     1    2
    25     7     8   ar
    26     9    10   ar
    27    11    12   ar
    28     3     5    1
    29     4     6    1
