@<TRIPOS>MOLECULE
MolPort-020-296-474 MCULE-4620783360 PubChem-110268416
 31 34 0 0 0
SMALL
GASTEIGER

@<TRIPOS>ATOM
      1 C          14.8987   38.8381   11.1226 C.3     1  UNL1        0.0958
      2 C          13.5475   39.2003   11.7412 C.3     1  UNL1        0.0196
      3 C          12.7727   40.1018   10.7960 C.3     1  UNL1        0.0089
      4 C          12.5938   39.3915    9.4614 C.3     1  UNL1        0.0582
      5 C          13.9565   39.0088    8.8734 C.3     1  UNL1        0.1017
      6 N          14.7697   38.2072    9.7997 N.3     1  UNL1       -0.1551
      7 C          11.8130   40.2327    8.5028 C.ar    1  UNL1        0.0644
      8 C          11.8105   41.7682    6.6987 C.ar    1  UNL1        0.2215
      9 C           9.7448   41.0615    7.6141 C.ar    1  UNL1        0.1031
     10 C          10.4142   40.2565    8.5327 C.ar    1  UNL1        0.0355
     11 N          12.4779   40.9874    7.5889 N.ar    1  UNL1       -0.2179
     12 N          10.4499   41.7994    6.7181 N.ar    1  UNL1       -0.2120
     13 N          12.5569   42.5456    5.7547 N.pl3   1  UNL1       -0.2667
     14 H          12.1995   42.5961    4.8387 H       1  UNL1        0.1565
     15 C          13.7731   43.2567    6.0150 C.ar    1  UNL1        0.1537
     16 C          15.1304   45.1890    5.7912 C.ar    1  UNL1        0.1210
     17 C          16.1303   44.5749    6.5467 C.ar    1  UNL1        0.1196
     18 C          14.7757   42.6453    6.7707 C.ar    1  UNL1        0.1332
     19 N          13.9755   44.5175    5.5422 N.ar    1  UNL1       -0.2258
     20 N          15.9311   43.3165    7.0200 N.ar    1  UNL1       -0.2378
     21 S          14.1602   36.5787    9.9264 S.O2    1  UNL1        0.0633
     22 O          14.2431   36.0859   11.3453 O.2     1  UNL1       -0.1528
     23 O          12.7220   36.5450    9.4903 O.2     1  UNL1       -0.1528
     24 C          17.3679   32.9571    6.2945 C.3     1  UNL1        0.0307
     25 C          16.5648   33.8268    7.2015 C.ar    1  UNL1       -0.0257
     26 C          15.5429   33.2994    8.0134 C.ar    1  UNL1       -0.0245
     27 C          14.8134   34.1503    8.8495 C.ar    1  UNL1        0.0153
     28 C          15.0954   35.5195    8.8854 C.ar    1  UNL1        0.1219
     29 C          16.1082   36.0419    8.0750 C.ar    1  UNL1        0.0196
     30 C          16.8407   35.1973    7.2371 C.ar    1  UNL1       -0.0032
     31 C          15.2124   31.8452    8.0061 C.3     1  UNL1        0.0307
@<TRIPOS>BOND
     1    24    25    1
     2    26    27   ar
     3    28    29   ar
     4    30    25   ar
     5     1     6    1
     6     1     2    1
     7     2     3    1
     8     3     4    1
     9     4     5    1
    10     4     7    1
    11     5     6    1
    12     8    11   ar
    13     8    13    1
    14     9    12   ar
    15    10     7   ar
    16    16    19   ar
    17    17    20   ar
    18    18    15   ar
    19    31    26    1
    20    21    28    1
    21    21     6    1
    22    13    15    1
    23    25    26   ar
    24    27    28   ar
    25    29    30   ar
    26     7    11   ar
    27     8    12   ar
    28     9    10   ar
    29    15    19   ar
    30    16    17   ar
    31    18    20   ar
    32    21    22    2
    33    21    23    2
    34    13    14    1
@<TRIPOS>MOLECULE
MolPort-020-296-474 MCULE-4620783360 PubChem-110268416
 31 34 0 0 0
SMALL
GASTEIGER

@<TRIPOS>ATOM
      1 C          10.2935   39.8477    8.2261 C.3     1  UNL1        0.0958
      2 C          10.8375   38.7460    9.1370 C.3     1  UNL1        0.0196
      3 C          12.3559   38.7734    9.1292 C.3     1  UNL1        0.0089
      4 C          12.8338   40.1464    9.5810 C.3     1  UNL1        0.0582
      5 C          12.2529   41.2385    8.6760 C.3     1  UNL1        0.1017
      6 N          10.7859   41.1851    8.5917 N.3     1  UNL1       -0.1551
      7 C          14.3273   40.2144    9.6131 C.ar    1  UNL1        0.0644
      8 C          16.3191   41.2686    8.8822 C.ar    1  UNL1        0.2215
      9 C          16.4656   39.4278   10.3635 C.ar    1  UNL1        0.1031
     10 C          15.0776   39.3130   10.3765 C.ar    1  UNL1        0.0355
     11 N          14.9635   41.1693    8.8848 N.ar    1  UNL1       -0.2179
     12 N          17.0593   40.3976    9.6210 N.ar    1  UNL1       -0.2120
     13 N          16.9428   42.2925    8.0979 N.pl3   1  UNL1       -0.2667
     14 H          17.9220   42.3693    8.1645 H       1  UNL1        0.1565
     15 C          16.2790   43.2156    7.2261 C.ar    1  UNL1        0.1537
     16 C          14.3595   43.9058    6.0157 C.ar    1  UNL1        0.1210
     17 C          15.0546   45.0224    5.5489 C.ar    1  UNL1        0.1196
     18 C          16.9715   44.3339    6.7571 C.ar    1  UNL1        0.1332
     19 N          14.9859   43.0282    6.8428 N.ar    1  UNL1       -0.2258
     20 N          16.3454   45.2120    5.9298 N.ar    1  UNL1       -0.2378
     21 S          10.0485   41.7556   10.0649 S.O2    1  UNL1        0.0633
     22 O          10.1891   40.7365   11.1624 O.2     1  UNL1       -0.1528
     23 O          10.7192   43.0277   10.5028 O.2     1  UNL1       -0.1528
     24 C           4.1914   42.9199    9.0978 C.3     1  UNL1        0.0307
     25 C           5.6278   42.6135    9.3559 C.ar    1  UNL1       -0.0257
     26 C           6.0234   41.7761   10.4161 C.ar    1  UNL1       -0.0245
     27 C           7.3813   41.5149   10.6234 C.ar    1  UNL1        0.0153
     28 C           8.3465   42.0778    9.7825 C.ar    1  UNL1        0.1219
     29 C           7.9517   42.9125    8.7324 C.ar    1  UNL1        0.0196
     30 C           6.5966   43.1779    8.5199 C.ar    1  UNL1       -0.0032
     31 C           5.0256   41.1547   11.3339 C.3     1  UNL1        0.0307
@<TRIPOS>BOND
     1    24    25    1
     2    26    27   ar
     3    28    29   ar
     4    30    25   ar
     5     1     6    1
     6     1     2    1
     7     2     3    1
     8     3     4    1
     9     4     5    1
    10     4     7    1
    11     5     6    1
    12     8    11   ar
    13     8    13    1
    14     9    12   ar
    15    10     7   ar
    16    16    19   ar
    17    17    20   ar
    18    18    15   ar
    19    31    26    1
    20    21    28    1
    21    21     6    1
    22    13    15    1
    23    25    26   ar
    24    27    28   ar
    25    29    30   ar
    26     7    11   ar
    27     8    12   ar
    28     9    10   ar
    29    15    19   ar
    30    16    17   ar
    31    18    20   ar
    32    21    22    2
    33    21    23    2
    34    13    14    1
@<TRIPOS>MOLECULE
MolPort-020-296-474 MCULE-4620783360 PubChem-110268416
 31 34 0 0 0
SMALL
GASTEIGER

@<TRIPOS>ATOM
      1 C           7.1073   41.2499    6.5056 C.3     1  UNL1        0.0958
      2 C           7.1904   40.2986    7.7004 C.3     1  UNL1        0.0196
      3 C           8.6446   40.0056    8.0261 C.3     1  UNL1        0.0089
      4 C           9.3662   41.3147    8.3143 C.3     1  UNL1        0.0582
      5 C           9.2445   42.2659    7.1186 C.3     1  UNL1        0.1017
      6 N           7.8489   42.5022    6.7208 N.3     1  UNL1       -0.1551
      7 C          10.8000   41.0747    8.6652 C.ar    1  UNL1        0.0644
      8 C          13.0872   41.3049    8.0924 C.ar    1  UNL1        0.2215
      9 C          12.5090   40.2241   10.1177 C.ar    1  UNL1        0.1031
     10 C          11.1563   40.4183    9.8486 C.ar    1  UNL1        0.0355
     11 N          11.7710   41.5019    7.8158 N.ar    1  UNL1       -0.2179
     12 N          13.4459   40.6678    9.2404 N.ar    1  UNL1       -0.2120
     13 N          14.0735   41.7739    7.1651 N.pl3   1  UNL1       -0.2667
     14 H          13.8974   41.6139    6.2098 H       1  UNL1        0.1565
     15 C          15.2913   42.4532    7.4939 C.ar    1  UNL1        0.1537
     16 C          17.4120   42.5047    8.5551 C.ar    1  UNL1        0.1210
     17 C          17.6115   43.8070    8.0945 C.ar    1  UNL1        0.1196
     18 C          15.4943   43.7562    7.0347 C.ar    1  UNL1        0.1332
     19 N          16.2580   41.8573    8.2452 N.ar    1  UNL1       -0.2258
     20 N          16.6483   44.4042    7.3444 N.ar    1  UNL1       -0.2378
     21 S           7.0345   43.5375    7.8630 S.O2    1  UNL1        0.0633
     22 O           8.0216   44.3998    8.6010 O.2     1  UNL1       -0.1528
     23 O           6.0696   44.4299    7.1333 O.2     1  UNL1       -0.1528
     24 C           3.9993   40.1134   11.8203 C.3     1  UNL1        0.0307
     25 C           4.7231   40.9622   10.8305 C.ar    1  UNL1       -0.0257
     26 C           4.0919   41.4349    9.6645 C.ar    1  UNL1       -0.0245
     27 C           4.8072   42.2280    8.7620 C.ar    1  UNL1        0.0153
     28 C           6.1433   42.5558    9.0129 C.ar    1  UNL1        0.1219
     29 C           6.7696   42.0818   10.1698 C.ar    1  UNL1        0.0196
     30 C           6.0607   41.2888   11.0756 C.ar    1  UNL1       -0.0032
     31 C           2.6684   41.1097    9.3610 C.3     1  UNL1        0.0307
@<TRIPOS>BOND
     1    24    25    1
     2    26    27   ar
     3    28    29   ar
     4    30    25   ar
     5     1     6    1
     6     1     2    1
     7     2     3    1
     8     3     4    1
     9     4     5    1
    10     4     7    1
    11     5     6    1
    12     8    11   ar
    13     8    13    1
    14     9    12   ar
    15    10     7   ar
    16    16    19   ar
    17    17    20   ar
    18    18    15   ar
    19    31    26    1
    20    21    28    1
    21    21     6    1
    22    13    15    1
    23    25    26   ar
    24    27    28   ar
    25    29    30   ar
    26     7    11   ar
    27     8    12   ar
    28     9    10   ar
    29    15    19   ar
    30    16    17   ar
    31    18    20   ar
    32    21    22    2
    33    21    23    2
    34    13    14    1
@<TRIPOS>MOLECULE
MolPort-020-296-474 MCULE-4620783360 PubChem-110268416
 31 34 0 0 0
SMALL
GASTEIGER

@<TRIPOS>ATOM
      1 C           9.9213   40.9687    8.2113 C.3     1  UNL1        0.0958
      2 C           9.9014   39.7040    9.0713 C.3     1  UNL1        0.0196
      3 C          11.3229   39.2495    9.3528 C.3     1  UNL1        0.0089
      4 C          12.0797   40.3739   10.0458 C.3     1  UNL1        0.0582
      5 C          12.0611   41.6409    9.1834 C.3     1  UNL1        0.1017
      6 N          10.6996   42.0595    8.8187 N.3     1  UNL1       -0.1551
      7 C          13.4816   39.9636   10.3663 C.ar    1  UNL1        0.0644
      8 C          15.7972   40.1429    9.8993 C.ar    1  UNL1        0.2215
      9 C          15.0799   38.7083   11.6405 C.ar    1  UNL1        0.1031
     10 C          13.7530   39.0511   11.3919 C.ar    1  UNL1        0.0355
     11 N          14.5072   40.4874    9.6448 N.ar    1  UNL1       -0.2179
     12 N          16.0735   39.2565   10.8945 N.ar    1  UNL1       -0.2120
     13 N          16.8435   40.7226    9.1107 N.pl3   1  UNL1       -0.2667
     14 H          17.6886   40.2207    9.0549 H       1  UNL1        0.1565
     15 C          16.7786   41.9624    8.3955 C.ar    1  UNL1        0.1537
     16 C          17.7636   44.0040    7.6973 C.ar    1  UNL1        0.1210
     17 C          16.5971   44.3304    7.0041 C.ar    1  UNL1        0.1196
     18 C          15.6130   42.2921    7.7008 C.ar    1  UNL1        0.1332
     19 N          17.8287   42.8289    8.3769 N.ar    1  UNL1       -0.2258
     20 N          15.5473   43.4674    7.0209 N.ar    1  UNL1       -0.2378
     21 S           9.8666   42.7540   10.1838 S.O2    1  UNL1        0.0633
     22 O          10.1830   41.9970   11.4446 O.2     1  UNL1       -0.1528
     23 O          10.2975   44.1832   10.3616 O.2     1  UNL1       -0.1528
     24 C           3.9038   42.5606    9.1815 C.3     1  UNL1        0.0307
     25 C           5.3753   42.6321    9.4127 C.ar    1  UNL1       -0.0257
     26 C           6.1837   43.5617    8.7315 C.ar    1  UNL1       -0.0245
     27 C           7.5597   43.5950    8.9776 C.ar    1  UNL1        0.0153
     28 C           8.1355   42.7131    9.8975 C.ar    1  UNL1        0.1219
     29 C           7.3313   41.7878   10.5701 C.ar    1  UNL1        0.0196
     30 C           5.9558   41.7490   10.3287 C.ar    1  UNL1       -0.0032
     31 C           5.6086   44.5204    7.7445 C.3     1  UNL1        0.0307
@<TRIPOS>BOND
     1    24    25    1
     2    26    27   ar
     3    28    29   ar
     4    30    25   ar
     5     1     6    1
     6     1     2    1
     7     2     3    1
     8     3     4    1
     9     4     5    1
    10     4     7    1
    11     5     6    1
    12     8    11   ar
    13     8    13    1
    14     9    12   ar
    15    10     7   ar
    16    16    19   ar
    17    17    20   ar
    18    18    15   ar
    19    31    26    1
    20    21    28    1
    21    21     6    1
    22    13    15    1
    23    25    26   ar
    24    27    28   ar
    25    29    30   ar
    26     7    11   ar
    27     8    12   ar
    28     9    10   ar
    29    15    19   ar
    30    16    17   ar
    31    18    20   ar
    32    21    22    2
    33    21    23    2
    34    13    14    1
@<TRIPOS>MOLECULE
MolPort-020-296-474 MCULE-4620783360 PubChem-110268416
 31 34 0 0 0
SMALL
GASTEIGER

@<TRIPOS>ATOM
      1 C          11.0073   38.7925    8.8809 C.3     1  UNL1        0.0958
      2 C          11.5394   38.1008   10.1371 C.3     1  UNL1        0.0196
      3 C          13.0579   38.0879   10.1146 C.3     1  UNL1        0.0089
      4 C          13.5689   39.5185   10.0163 C.3     1  UNL1        0.0582
      5 C          12.9998   40.2043    8.7693 C.3     1  UNL1        0.1017
      6 N          11.5312   40.1574    8.7158 N.3     1  UNL1       -0.1551
      7 C          15.0638   39.5587   10.0156 C.ar    1  UNL1        0.0644
      8 C          17.0568   40.6353    9.3216 C.ar    1  UNL1        0.2215
      9 C          17.2044   38.6782   10.6454 C.ar    1  UNL1        0.1031
     10 C          15.8152   38.5860   10.6845 C.ar    1  UNL1        0.0355
     11 N          15.7000   40.5588    9.3508 N.ar    1  UNL1       -0.2179
     12 N          17.7981   39.6950    9.9687 N.ar    1  UNL1       -0.2120
     13 N          17.6805   41.7089    8.6069 N.pl3   1  UNL1       -0.2667
     14 H          18.6481   41.8302    8.7420 H       1  UNL1        0.1565
     15 C          17.0320   42.6231    7.7145 C.ar    1  UNL1        0.1537
     16 C          17.1136   44.4415    6.1936 C.ar    1  UNL1        0.1210
     17 C          15.7326   44.3529    6.0127 C.ar    1  UNL1        0.1196
     18 C          15.6503   42.5373    7.5310 C.ar    1  UNL1        0.1332
     19 N          17.7321   43.5760    7.0393 N.ar    1  UNL1       -0.2258
     20 N          15.0312   43.4028    6.6853 N.ar    1  UNL1       -0.2378
     21 S          10.8229   41.2562    9.8693 S.O2    1  UNL1        0.0633
     22 O          11.1224   40.8192   11.2772 O.2     1  UNL1       -0.1528
     23 O          11.3886   42.6337    9.6641 O.2     1  UNL1       -0.1528
     24 C           4.8252   41.4172    9.0959 C.3     1  UNL1        0.0307
     25 C           6.3070   41.3743    9.2583 C.ar    1  UNL1       -0.0257
     26 C           7.1570   41.0557    8.1823 C.ar    1  UNL1       -0.0245
     27 C           8.5412   41.0262    8.3778 C.ar    1  UNL1        0.0153
     28 C           9.0847   41.3140    9.6337 C.ar    1  UNL1        0.1219
     29 C           8.2384   41.6263   10.7021 C.ar    1  UNL1        0.0196
     30 C           6.8544   41.6573   10.5137 C.ar    1  UNL1       -0.0032
     31 C           6.6176   40.7446    6.8272 C.3     1  UNL1        0.0307
@<TRIPOS>BOND
     1    24    25    1
     2    26    27   ar
     3    28    29   ar
     4    30    25   ar
     5     1     6    1
     6     1     2    1
     7     2     3    1
     8     3     4    1
     9     4     5    1
    10     4     7    1
    11     5     6    1
    12     8    11   ar
    13     8    13    1
    14     9    12   ar
    15    10     7   ar
    16    16    19   ar
    17    17    20   ar
    18    18    15   ar
    19    31    26    1
    20    21    28    1
    21    21     6    1
    22    13    15    1
    23    25    26   ar
    24    27    28   ar
    25    29    30   ar
    26     7    11   ar
    27     8    12   ar
    28     9    10   ar
    29    15    19   ar
    30    16    17   ar
    31    18    20   ar
    32    21    22    2
    33    21    23    2
    34    13    14    1
@<TRIPOS>MOLECULE
MolPort-020-296-474 MCULE-4620783360 PubChem-110268416
 31 34 0 0 0
SMALL
GASTEIGER

@<TRIPOS>ATOM
      1 C           9.9757   40.7104    8.1126 C.3     1  UNL1        0.0958
      2 C          10.0134   39.4418    8.9663 C.3     1  UNL1        0.0196
      3 C          11.4537   39.0646    9.2660 C.3     1  UNL1        0.0089
      4 C          12.1376   40.2251    9.9751 C.3     1  UNL1        0.0582
      5 C          12.0614   41.4938    9.1184 C.3     1  UNL1        0.1017
      6 N          10.6842   41.8390    8.7362 N.3     1  UNL1       -0.1551
      7 C          13.5553   39.8907   10.3137 C.ar    1  UNL1        0.0644
      8 C          15.8639   40.1982    9.8795 C.ar    1  UNL1        0.2215
      9 C          15.2023   38.7196   11.6060 C.ar    1  UNL1        0.1031
     10 C          13.8622   38.9904   11.3400 C.ar    1  UNL1        0.0355
     11 N          14.5606   40.4727    9.6082 N.ar    1  UNL1       -0.2179
     12 N          16.1746   39.3243   10.8756 N.ar    1  UNL1       -0.2120
     13 N          16.8876   40.8373    9.1074 N.pl3   1  UNL1       -0.2667
     14 H          17.7728   40.4066    9.0992 H       1  UNL1        0.1565
     15 C          16.7473   42.0429    8.3460 C.ar    1  UNL1        0.1537
     16 C          15.5003   43.4380    6.8885 C.ar    1  UNL1        0.1210
     17 C          16.5330   44.3767    6.9024 C.ar    1  UNL1        0.1196
     18 C          17.7787   42.9842    8.3577 C.ar    1  UNL1        0.1332
     19 N          15.6298   42.2934    7.6095 N.ar    1  UNL1       -0.2258
     20 N          17.6496   44.1293    7.6366 N.ar    1  UNL1       -0.2378
     21 S           9.7952   42.4792   10.0924 S.O2    1  UNL1        0.0633
     22 O           9.7049   41.4645   11.1992 O.2     1  UNL1       -0.1528
     23 O          10.4930   43.7022   10.6187 O.2     1  UNL1       -0.1528
     24 C           4.2239   44.0605    8.3438 C.3     1  UNL1        0.0307
     25 C           5.5874   43.6447    8.7818 C.ar    1  UNL1       -0.0257
     26 C           5.8086   42.4187    9.4372 C.ar    1  UNL1       -0.0245
     27 C           7.1033   42.0673    9.8317 C.ar    1  UNL1        0.0153
     28 C           8.1780   42.9248    9.5762 C.ar    1  UNL1        0.1219
     29 C           7.9555   44.1440    8.9286 C.ar    1  UNL1        0.0196
     30 C           6.6643   44.5013    8.5320 C.ar    1  UNL1       -0.0032
     31 C           4.6903   41.4755    9.7266 C.3     1  UNL1        0.0307
@<TRIPOS>BOND
     1    24    25    1
     2    26    27   ar
     3    28    29   ar
     4    30    25   ar
     5     1     6    1
     6     1     2    1
     7     2     3    1
     8     3     4    1
     9     4     5    1
    10     4     7    1
    11     5     6    1
    12     8    11   ar
    13     8    13    1
    14     9    12   ar
    15    10     7   ar
    16    16    19   ar
    17    17    20   ar
    18    18    15   ar
    19    31    26    1
    20    21    28    1
    21    21     6    1
    22    13    15    1
    23    25    26   ar
    24    27    28   ar
    25    29    30   ar
    26     7    11   ar
    27     8    12   ar
    28     9    10   ar
    29    15    19   ar
    30    16    17   ar
    31    18    20   ar
    32    21    22    2
    33    21    23    2
    34    13    14    1
@<TRIPOS>MOLECULE
MolPort-020-296-474 MCULE-4620783360 PubChem-110268416
 31 34 0 0 0
SMALL
GASTEIGER

@<TRIPOS>ATOM
      1 C           8.5964   39.4079    5.3098 C.3     1  UNL1        0.0958
      2 C           8.4488   38.5804    6.5877 C.3     1  UNL1        0.0196
      3 C           9.7190   38.6775    7.4145 C.3     1  UNL1        0.0089
      4 C           9.9967   40.1395    7.7352 C.3     1  UNL1        0.0582
      5 C          10.1094   40.9573    6.4438 C.3     1  UNL1        0.1017
      6 N           8.9301   40.8157    5.5772 N.3     1  UNL1       -0.1551
      7 C          11.2281   40.2843    8.5711 C.ar    1  UNL1        0.0644
      8 C          13.5349   40.8089    8.6984 C.ar    1  UNL1        0.2215
      9 C          12.3840   40.1841   10.6706 C.ar    1  UNL1        0.1031
     10 C          11.2033   40.0327    9.9474 C.ar    1  UNL1        0.0355
     11 N          12.3905   40.6655    7.9791 N.ar    1  UNL1       -0.2179
     12 N          13.5229   40.5672   10.0378 N.ar    1  UNL1       -0.2120
     13 N          14.7349   41.2130    8.0283 N.pl3   1  UNL1       -0.2667
     14 H          15.4975   40.5915    8.0683 H       1  UNL1        0.1565
     15 C          14.9325   42.4342    7.3056 C.ar    1  UNL1        0.1537
     16 C          14.2625   43.9882    5.6436 C.ar    1  UNL1        0.1210
     17 C          15.3622   44.7910    5.9500 C.ar    1  UNL1        0.1196
     18 C          16.0318   43.2399    7.6096 C.ar    1  UNL1        0.1332
     19 N          14.0720   42.8291    6.3270 N.ar    1  UNL1       -0.2258
     20 N          16.2228   44.3993    6.9263 N.ar    1  UNL1       -0.2378
     21 S           7.5637   41.6831    6.2253 S.O2    1  UNL1        0.0633
     22 O           7.4340   43.0355    5.5798 O.2     1  UNL1       -0.1528
     23 O           6.3044   40.9045    5.9646 O.2     1  UNL1       -0.1528
     24 C           8.1946   42.3758   12.2019 C.3     1  UNL1        0.0307
     25 C           8.0616   42.2223   10.7245 C.ar    1  UNL1       -0.0257
     26 C           8.8294   42.9936    9.8317 C.ar    1  UNL1       -0.0245
     27 C           8.6733   42.8184    8.4533 C.ar    1  UNL1        0.0153
     28 C           7.7621   41.8803    7.9580 C.ar    1  UNL1        0.1219
     29 C           6.9975   41.1180    8.8465 C.ar    1  UNL1        0.0196
     30 C           7.1483   41.2883   10.2250 C.ar    1  UNL1       -0.0032
     31 C           9.8131   44.0030   10.3191 C.3     1  UNL1        0.0307
@<TRIPOS>BOND
     1    24    25    1
     2    26    27   ar
     3    28    29   ar
     4    30    25   ar
     5     1     6    1
     6     1     2    1
     7     2     3    1
     8     3     4    1
     9     4     5    1
    10     4     7    1
    11     5     6    1
    12     8    11   ar
    13     8    13    1
    14     9    12   ar
    15    10     7   ar
    16    16    19   ar
    17    17    20   ar
    18    18    15   ar
    19    31    26    1
    20    21    28    1
    21    21     6    1
    22    13    15    1
    23    25    26   ar
    24    27    28   ar
    25    29    30   ar
    26     7    11   ar
    27     8    12   ar
    28     9    10   ar
    29    15    19   ar
    30    16    17   ar
    31    18    20   ar
    32    21    22    2
    33    21    23    2
    34    13    14    1
@<TRIPOS>MOLECULE
MolPort-020-296-474 MCULE-4620783360 PubChem-110268416
 31 34 0 0 0
SMALL
GASTEIGER

@<TRIPOS>ATOM
      1 C           5.8816   41.6085    6.1274 C.3     1  UNL1        0.0958
      2 C           6.2117   40.1899    6.5945 C.3     1  UNL1        0.0196
      3 C           7.7146   39.9735    6.5636 C.3     1  UNL1        0.0089
      4 C           8.3882   41.0141    7.4473 C.3     1  UNL1        0.0582
      5 C           8.0199   42.4277    6.9831 C.3     1  UNL1        0.1017
      6 N           6.5670   42.6433    6.9174 N.3     1  UNL1       -0.1551
      7 C           9.8715   40.8257    7.4682 C.ar    1  UNL1        0.0644
      8 C          11.9968   41.4174    6.6047 C.ar    1  UNL1        0.2215
      9 C          11.8601   39.7819    8.3108 C.ar    1  UNL1        0.1031
     10 C          10.4737   39.9121    8.3404 C.ar    1  UNL1        0.0355
     11 N          10.6447   41.5558    6.6220 N.ar    1  UNL1       -0.2179
     12 N          12.5938   40.5320    7.4487 N.ar    1  UNL1       -0.2120
     13 N          12.7684   42.2099    5.6941 N.pl3   1  UNL1       -0.2667
     14 H          12.5044   42.1816    4.7461 H       1  UNL1        0.1565
     15 C          13.8871   43.0396    6.0300 C.ar    1  UNL1        0.1537
     16 C          15.0895   45.0745    5.8309 C.ar    1  UNL1        0.1210
     17 C          16.0576   44.5892    6.7112 C.ar    1  UNL1        0.1196
     18 C          14.8577   42.5573    6.9105 C.ar    1  UNL1        0.1332
     19 N          14.0270   44.2902    5.5100 N.ar    1  UNL1       -0.2258
     20 N          15.9206   43.3413    7.2318 N.ar    1  UNL1       -0.2378
     21 S           5.8784   42.7883    8.5126 S.O2    1  UNL1        0.0633
     22 O           5.3851   44.1883    8.7565 O.2     1  UNL1       -0.1528
     23 O           4.7190   41.8410    8.6476 O.2     1  UNL1       -0.1528
     24 C          10.0219   41.3948   12.6942 C.3     1  UNL1        0.0307
     25 C           9.0204   41.7532   11.6491 C.ar    1  UNL1       -0.0257
     26 C           9.3160   42.6817   10.6332 C.ar    1  UNL1       -0.0245
     27 C           8.3477   42.9898    9.6726 C.ar    1  UNL1        0.0153
     28 C           7.0904   42.3791    9.7142 C.ar    1  UNL1        0.1219
     29 C           6.7974   41.4601   10.7266 C.ar    1  UNL1        0.0196
     30 C           7.7602   41.1479   11.6896 C.ar    1  UNL1       -0.0032
     31 C          10.6451   43.3533   10.5523 C.3     1  UNL1        0.0307
@<TRIPOS>BOND
     1    24    25    1
     2    26    27   ar
     3    28    29   ar
     4    30    25   ar
     5     1     6    1
     6     1     2    1
     7     2     3    1
     8     3     4    1
     9     4     5    1
    10     4     7    1
    11     5     6    1
    12     8    11   ar
    13     8    13    1
    14     9    12   ar
    15    10     7   ar
    16    16    19   ar
    17    17    20   ar
    18    18    15   ar
    19    31    26    1
    20    21    28    1
    21    21     6    1
    22    13    15    1
    23    25    26   ar
    24    27    28   ar
    25    29    30   ar
    26     7    11   ar
    27     8    12   ar
    28     9    10   ar
    29    15    19   ar
    30    16    17   ar
    31    18    20   ar
    32    21    22    2
    33    21    23    2
    34    13    14    1
@<TRIPOS>MOLECULE
MolPort-020-296-474 MCULE-4620783360 PubChem-110268416
 31 34 0 0 0
SMALL
GASTEIGER

@<TRIPOS>ATOM
      1 C          11.8935   41.3069   10.1579 C.3     1  UNL1        0.0958
      2 C          11.2938   39.9133   10.3520 C.3     1  UNL1        0.0196
      3 C           9.8820   39.8770    9.7936 C.3     1  UNL1        0.0089
      4 C           9.9165   40.2606    8.3208 C.3     1  UNL1        0.0582
      5 C          10.5493   41.6454    8.1444 C.3     1  UNL1        0.1017
      6 N          11.8847   41.7410    8.7521 N.3     1  UNL1       -0.1551
      7 C           8.5482   40.2153    7.7191 C.ar    1  UNL1        0.0644
      8 C           6.3343   41.0569    7.6663 C.ar    1  UNL1        0.2215
      9 C           6.9444   39.3226    6.1749 C.ar    1  UNL1        0.1031
     10 C           8.2374   39.3165    6.6926 C.ar    1  UNL1        0.0355
     11 N           7.5920   41.0629    8.1818 N.ar    1  UNL1       -0.2179
     12 N           6.0202   40.1872    6.6675 N.ar    1  UNL1       -0.2120
     13 N           5.3613   41.9700    8.1880 N.pl3   1  UNL1       -0.2667
     14 H           5.1824   42.7800    7.6578 H       1  UNL1        0.1565
     15 C           4.6235   41.8180    9.4067 C.ar    1  UNL1        0.1537
     16 C           4.2691   40.7460   11.4926 C.ar    1  UNL1        0.1210
     17 C           3.1689   41.5712   11.7305 C.ar    1  UNL1        0.1196
     18 C           3.5222   42.6421    9.6480 C.ar    1  UNL1        0.1332
     19 N           4.9712   40.8873   10.3377 N.ar    1  UNL1       -0.2258
     20 N           2.8196   42.5011   10.8030 N.ar    1  UNL1       -0.2378
     21 S          13.0696   40.8761    7.8101 S.O2    1  UNL1        0.0633
     22 O          13.3298   39.5158    8.3973 O.2     1  UNL1       -0.1528
     23 O          12.5655   40.7033    6.4045 O.2     1  UNL1       -0.1528
     24 C          18.2283   44.0346    7.7226 C.3     1  UNL1        0.0307
     25 C          16.9468   43.2720    7.7226 C.ar    1  UNL1       -0.0257
     26 C          15.8506   43.6738    6.9360 C.ar    1  UNL1       -0.0245
     27 C          14.6668   42.9303    6.9657 C.ar    1  UNL1        0.0153
     28 C          14.5674   41.7900    7.7690 C.ar    1  UNL1        0.1219
     29 C          15.6561   41.3949    8.5526 C.ar    1  UNL1        0.0196
     30 C          16.8418   42.1335    8.5278 C.ar    1  UNL1       -0.0032
     31 C          15.9165   44.8822    6.0646 C.3     1  UNL1        0.0307
@<TRIPOS>BOND
     1    24    25    1
     2    26    27   ar
     3    28    29   ar
     4    30    25   ar
     5     1     6    1
     6     1     2    1
     7     2     3    1
     8     3     4    1
     9     4     5    1
    10     4     7    1
    11     5     6    1
    12     8    11   ar
    13     8    13    1
    14     9    12   ar
    15    10     7   ar
    16    16    19   ar
    17    17    20   ar
    18    18    15   ar
    19    31    26    1
    20    21    28    1
    21    21     6    1
    22    13    15    1
    23    25    26   ar
    24    27    28   ar
    25    29    30   ar
    26     7    11   ar
    27     8    12   ar
    28     9    10   ar
    29    15    19   ar
    30    16    17   ar
    31    18    20   ar
    32    21    22    2
    33    21    23    2
    34    13    14    1
@<TRIPOS>MOLECULE
MolPort-020-296-474 MCULE-4620783360 PubChem-110268416
 31 34 0 0 0
SMALL
GASTEIGER

@<TRIPOS>ATOM
      1 C           9.8652   41.5871    6.0650 C.3     1  UNL1        0.0958
      2 C          10.1468   40.1099    5.7856 C.3     1  UNL1        0.0196
      3 C          11.5155   39.7346    6.3262 C.3     1  UNL1        0.0089
      4 C          11.5622   40.0305    7.8188 C.3     1  UNL1        0.0582
      5 C          11.2464   41.5074    8.0804 C.3     1  UNL1        0.1017
      6 N           9.9654   41.9268    7.4931 N.3     1  UNL1       -0.1551
      7 C          12.8863   39.6534    8.4026 C.ar    1  UNL1        0.0644
      8 C          15.1294   40.2493    8.8782 C.ar    1  UNL1        0.2215
      9 C          14.3464   38.1069    9.5118 C.ar    1  UNL1        0.1031
     10 C          13.0897   38.3982    8.9867 C.ar    1  UNL1        0.0355
     11 N          13.9083   40.5484    8.3615 N.ar    1  UNL1       -0.2179
     12 N          15.3390   39.0316    9.4490 N.ar    1  UNL1       -0.2120
     13 N          16.1747   41.2267    8.8105 N.pl3   1  UNL1       -0.2667
     14 H          16.9535   41.0863    9.3963 H       1  UNL1        0.1565
     15 C          16.1962   42.3886    7.9726 C.ar    1  UNL1        0.1537
     16 C          17.2761   44.3407    7.1668 C.ar    1  UNL1        0.1210
     17 C          16.1821   44.6061    6.3418 C.ar    1  UNL1        0.1196
     18 C          15.1033   42.6572    7.1459 C.ar    1  UNL1        0.1332
     19 N          17.2592   43.2394    7.9629 N.ar    1  UNL1       -0.2258
     20 N          15.1197   43.7586    6.3494 N.ar    1  UNL1       -0.2378
     21 S           8.6182   41.2877    8.3966 S.O2    1  UNL1        0.0633
     22 O           8.2524   39.9123    7.9097 O.2     1  UNL1       -0.1528
     23 O           8.9855   41.1994    9.8516 O.2     1  UNL1       -0.1528
     24 C           3.8852   45.0094    7.8095 C.3     1  UNL1        0.0307
     25 C           5.0363   44.0753    7.9714 C.ar    1  UNL1       -0.0257
     26 C           4.9992   43.0139    8.8954 C.ar    1  UNL1       -0.0245
     27 C           6.1008   42.1611    9.0159 C.ar    1  UNL1        0.0153
     28 C           7.2359   42.3551    8.2225 C.ar    1  UNL1        0.1219
     29 C           7.2722   43.4124    7.3082 C.ar    1  UNL1        0.0196
     30 C           6.1751   44.2684    7.1830 C.ar    1  UNL1       -0.0032
     31 C           3.8074   42.7717    9.7585 C.3     1  UNL1        0.0307
@<TRIPOS>BOND
     1    24    25    1
     2    26    27   ar
     3    28    29   ar
     4    30    25   ar
     5     1     6    1
     6     1     2    1
     7     2     3    1
     8     3     4    1
     9     4     5    1
    10     4     7    1
    11     5     6    1
    12     8    11   ar
    13     8    13    1
    14     9    12   ar
    15    10     7   ar
    16    16    19   ar
    17    17    20   ar
    18    18    15   ar
    19    31    26    1
    20    21    28    1
    21    21     6    1
    22    13    15    1
    23    25    26   ar
    24    27    28   ar
    25    29    30   ar
    26     7    11   ar
    27     8    12   ar
    28     9    10   ar
    29    15    19   ar
    30    16    17   ar
    31    18    20   ar
    32    21    22    2
    33    21    23    2
    34    13    14    1
