@<TRIPOS>MOLECULE
MolPort-020-275-234 MCULE-5559813353 PubChem-110252911
 27 30 0 0 0
SMALL
GASTEIGER

@<TRIPOS>ATOM
      1 C          11.7237   41.1324    7.1421 C.ar    1  UNL1        0.1522
      2 C          11.3469   39.0055    8.1290 C.ar    1  UNL1        0.0808
      3 C           9.9643   39.2038    8.0270 C.ar    1  UNL1        0.1137
      4 C          10.3395   41.3229    7.0431 C.ar    1  UNL1        0.1332
      5 N          12.1891   39.9754    7.6842 N.ar    1  UNL1       -0.2317
      6 N           9.4932   40.3572    7.4865 N.ar    1  UNL1       -0.2382
      7 C          11.9132   37.7536    8.7185 C.3     1  UNL1        0.0618
      8 C          11.2112   37.3943   10.0308 C.3     1  UNL1        0.0094
      9 C          11.7890   36.1036   10.6076 C.3     1  UNL1        0.0220
     10 C          13.2900   36.2584   10.8313 C.3     1  UNL1        0.0936
     11 C          13.4228   37.8806    8.9278 C.3     1  UNL1        0.0995
     12 N          13.9261   36.6781    9.5855 N.pl3   1  UNL1       -0.2778
     13 C          14.9957   35.9156    9.0091 C.ar    1  UNL1        0.2202
     14 C          15.9603   33.8158    8.4894 C.ar    1  UNL1        0.1034
     15 C          17.0503   34.4495    7.8962 C.ar    1  UNL1        0.0414
     16 C          17.0763   35.8425    7.8795 C.ar    1  UNL1        0.1034
     17 N          14.9580   34.5544    9.0324 N.ar    1  UNL1       -0.2121
     18 N          16.0553   36.5477    8.4323 N.ar    1  UNL1       -0.2121
     19 N          12.6641   42.1174    6.6909 N.pl3   1  UNL1       -0.2821
     20 H          12.3331   42.7646    6.0269 H       1  UNL1        0.1551
     21 C          17.0016   44.3549    6.2285 C.3     1  UNL1        0.0521
     22 C          16.1470   43.3368    6.8927 C.ar    1  UNL1        0.0608
     23 C          14.0310   42.2667    7.0969 C.ar    1  UNL1        0.1328
     24 C          14.5290   41.4469    8.1136 C.ar    1  UNL1        0.0344
     25 C          15.8584   41.5837    8.5172 C.ar    1  UNL1        0.0041
     26 C          16.6765   42.5339    7.9050 C.ar    1  UNL1        0.0148
     27 N          14.8492   43.1877    6.5140 N.ar    1  UNL1       -0.2349
@<TRIPOS>BOND
     1    21    22    1
     2    23    27   ar
     3    23    19    1
     4    24    25   ar
     5    26    22   ar
     6     2     5   ar
     7     3     6   ar
     8     4     1   ar
     9     7     2    1
    10     7     8    1
    11     8     9    1
    12     9    10    1
    13    10    12    1
    14    11    12    1
    15    11     7    1
    16    13    18   ar
    17    14    17   ar
    18    15    16   ar
    19    19     1    1
    20    12    13    1
    21    22    27   ar
    22    23    24   ar
    23    25    26   ar
    24     1     5   ar
    25     2     3   ar
    26     4     6   ar
    27    13    17   ar
    28    14    15   ar
    29    16    18   ar
    30    19    20    1
@<TRIPOS>MOLECULE
MolPort-020-275-234 MCULE-5559813353 PubChem-110252911
 27 30 0 0 0
SMALL
GASTEIGER

@<TRIPOS>ATOM
      1 C          16.7005   39.9800   10.2101 C.ar    1  UNL1        0.1522
      2 C          14.5516   39.1078   10.7216 C.ar    1  UNL1        0.0808
      3 C          15.1279   38.2370   11.6547 C.ar    1  UNL1        0.1137
      4 C          17.2691   39.1062   11.1458 C.ar    1  UNL1        0.1332
      5 N          15.3537   39.9553   10.0242 N.ar    1  UNL1       -0.2317
      6 N          16.4724   38.2567   11.8451 N.ar    1  UNL1       -0.2382
      7 C          13.0770   39.1215   10.4755 C.3     1  UNL1        0.0618
      8 C          12.6005   37.7851    9.9003 C.3     1  UNL1        0.0094
      9 C          11.0903   37.8110    9.6740 C.3     1  UNL1        0.0220
     10 C          10.7232   38.9561    8.7354 C.3     1  UNL1        0.0936
     11 C          12.6857   40.2786    9.5552 C.3     1  UNL1        0.0995
     12 N          11.2564   40.2082    9.2651 N.pl3   1  UNL1       -0.2778
     13 C          10.3967   41.3279    9.5200 C.ar    1  UNL1        0.2202
     14 C           8.2397   42.3045    9.4592 C.ar    1  UNL1        0.1034
     15 C           8.7425   43.4791   10.0150 C.ar    1  UNL1        0.0414
     16 C          10.1020   43.5397   10.3144 C.ar    1  UNL1        0.1034
     17 N           9.0696   41.2555    9.2225 N.ar    1  UNL1       -0.2121
     18 N          10.9010   42.4702   10.0638 N.ar    1  UNL1       -0.2121
     19 N          17.4925   40.8979    9.4431 N.pl3   1  UNL1       -0.2821
     20 H          18.4690   40.7897    9.5061 H       1  UNL1        0.1551
     21 C          14.0378   42.7539    6.5012 C.3     1  UNL1        0.0521
     22 C          15.3623   42.8786    7.1632 C.ar    1  UNL1        0.0608
     23 C          17.0237   41.9549    8.5953 C.ar    1  UNL1        0.1328
     24 C          17.8279   43.0832    8.4117 C.ar    1  UNL1        0.0344
     25 C          17.3815   44.1186    7.5886 C.ar    1  UNL1        0.0041
     26 C          16.1407   44.0194    6.9580 C.ar    1  UNL1        0.0148
     27 N          15.8155   41.8808    7.9689 N.ar    1  UNL1       -0.2349
@<TRIPOS>BOND
     1    21    22    1
     2    23    27   ar
     3    23    19    1
     4    24    25   ar
     5    26    22   ar
     6     2     5   ar
     7     3     6   ar
     8     4     1   ar
     9     7     2    1
    10     7     8    1
    11     8     9    1
    12     9    10    1
    13    10    12    1
    14    11    12    1
    15    11     7    1
    16    13    18   ar
    17    14    17   ar
    18    15    16   ar
    19    19     1    1
    20    12    13    1
    21    22    27   ar
    22    23    24   ar
    23    25    26   ar
    24     1     5   ar
    25     2     3   ar
    26     4     6   ar
    27    13    17   ar
    28    14    15   ar
    29    16    18   ar
    30    19    20    1
@<TRIPOS>MOLECULE
MolPort-020-275-234 MCULE-5559813353 PubChem-110252911
 27 30 0 0 0
SMALL
GASTEIGER

@<TRIPOS>ATOM
      1 C          12.0824   41.6044    7.1212 C.ar    1  UNL1        0.1522
      2 C          12.2514   39.9591    8.8253 C.ar    1  UNL1        0.0808
      3 C          10.8632   40.0034    9.0050 C.ar    1  UNL1        0.1137
      4 C          10.6945   41.6424    7.3066 C.ar    1  UNL1        0.1332
      5 N          12.8233   40.7612    7.8886 N.ar    1  UNL1       -0.2317
      6 N          10.1176   40.8435    8.2417 N.ar    1  UNL1       -0.2382
      7 C          13.1144   39.0524    9.6430 C.3     1  UNL1        0.0618
      8 C          13.3485   39.6266   11.0428 C.3     1  UNL1        0.0094
      9 C          14.2150   38.6785   11.8691 C.3     1  UNL1        0.0220
     10 C          15.5454   38.4384   11.1624 C.3     1  UNL1        0.0936
     11 C          14.4445   38.7799    8.9390 C.3     1  UNL1        0.0995
     12 N          15.2953   37.9668    9.8032 N.pl3   1  UNL1       -0.2778
     13 C          15.8460   36.7262    9.3389 C.ar    1  UNL1        0.2202
     14 C          17.7079   35.4707    8.5860 C.ar    1  UNL1        0.1034
     15 C          16.9059   34.3393    8.4509 C.ar    1  UNL1        0.0414
     16 C          15.5549   34.4441    8.7756 C.ar    1  UNL1        0.1034
     17 N          17.1682   36.6375    9.0247 N.ar    1  UNL1       -0.2121
     18 N          15.0509   35.6278    9.2114 N.ar    1  UNL1       -0.2121
     19 N          12.7455   42.4255    6.1495 N.pl3   1  UNL1       -0.2821
     20 H          12.2917   42.5273    5.2818 H       1  UNL1        0.1551
     21 C          17.2829   42.6229    7.9955 C.3     1  UNL1        0.0521
     22 C          16.2005   43.2351    7.1820 C.ar    1  UNL1        0.0608
     23 C          13.9940   43.1146    6.2983 C.ar    1  UNL1        0.1328
     24 C          14.1638   44.3518    5.6705 C.ar    1  UNL1        0.0344
     25 C          15.3753   45.0316    5.8083 C.ar    1  UNL1        0.0041
     26 C          16.4033   44.4729    6.5686 C.ar    1  UNL1        0.0148
     27 N          15.0126   42.5890    7.0356 N.ar    1  UNL1       -0.2349
@<TRIPOS>BOND
     1    21    22    1
     2    23    27   ar
     3    23    19    1
     4    24    25   ar
     5    26    22   ar
     6     2     5   ar
     7     3     6   ar
     8     4     1   ar
     9     7     2    1
    10     7     8    1
    11     8     9    1
    12     9    10    1
    13    10    12    1
    14    11    12    1
    15    11     7    1
    16    13    18   ar
    17    14    17   ar
    18    15    16   ar
    19    19     1    1
    20    12    13    1
    21    22    27   ar
    22    23    24   ar
    23    25    26   ar
    24     1     5   ar
    25     2     3   ar
    26     4     6   ar
    27    13    17   ar
    28    14    15   ar
    29    16    18   ar
    30    19    20    1
@<TRIPOS>MOLECULE
MolPort-020-275-234 MCULE-5559813353 PubChem-110252911
 27 30 0 0 0
SMALL
GASTEIGER

@<TRIPOS>ATOM
      1 C          11.9165   41.4593    6.5612 C.ar    1  UNL1        0.1522
      2 C          11.9140   39.5428    7.9636 C.ar    1  UNL1        0.0808
      3 C          10.5138   39.5322    7.9457 C.ar    1  UNL1        0.1137
      4 C          10.5159   41.4415    6.5478 C.ar    1  UNL1        0.1332
      5 N          12.5774   40.5064    7.2713 N.ar    1  UNL1       -0.2317
      6 N           9.8478   40.4812    7.2384 N.ar    1  UNL1       -0.2382
      7 C          12.6913   38.5206    8.7294 C.3     1  UNL1        0.0618
      8 C          11.7598   37.5837    9.5028 C.3     1  UNL1        0.0094
      9 C          12.5699   36.5353   10.2625 C.3     1  UNL1        0.0220
     10 C          13.5469   37.2196   11.2135 C.3     1  UNL1        0.0936
     11 C          13.6944   39.1877    9.6716 C.3     1  UNL1        0.0995
     12 N          14.3704   38.1658   10.4658 N.pl3   1  UNL1       -0.2778
     13 C          15.8020   38.0769   10.4877 C.ar    1  UNL1        0.2202
     14 C          17.7782   36.8242   10.1197 C.ar    1  UNL1        0.1034
     15 C          18.5550   37.9076   10.5251 C.ar    1  UNL1        0.0414
     16 C          17.9061   39.0786   10.9112 C.ar    1  UNL1        0.1034
     17 N          16.4237   36.9262   10.1079 N.ar    1  UNL1       -0.2121
     18 N          16.5495   39.1434   10.8861 N.ar    1  UNL1       -0.2121
     19 N          12.6742   42.4492    5.8512 N.pl3   1  UNL1       -0.2821
     20 H          12.2835   42.7761    5.0087 H       1  UNL1        0.1551
     21 C          16.8719   42.1505    8.3661 C.3     1  UNL1        0.0521
     22 C          15.9810   42.8964    7.4397 C.ar    1  UNL1        0.0608
     23 C          13.9356   43.0166    6.2289 C.ar    1  UNL1        0.1328
     24 C          14.2990   44.2638    5.7132 C.ar    1  UNL1        0.0344
     25 C          15.5249   44.8257    6.0739 C.ar    1  UNL1        0.0041
     26 C          16.3747   44.1405    6.9431 C.ar    1  UNL1        0.0148
     27 N          14.7823   42.3663    7.0760 N.ar    1  UNL1       -0.2349
@<TRIPOS>BOND
     1    21    22    1
     2    23    27   ar
     3    23    19    1
     4    24    25   ar
     5    26    22   ar
     6     2     5   ar
     7     3     6   ar
     8     4     1   ar
     9     7     2    1
    10     7     8    1
    11     8     9    1
    12     9    10    1
    13    10    12    1
    14    11    12    1
    15    11     7    1
    16    13    18   ar
    17    14    17   ar
    18    15    16   ar
    19    19     1    1
    20    12    13    1
    21    22    27   ar
    22    23    24   ar
    23    25    26   ar
    24     1     5   ar
    25     2     3   ar
    26     4     6   ar
    27    13    17   ar
    28    14    15   ar
    29    16    18   ar
    30    19    20    1
@<TRIPOS>MOLECULE
MolPort-020-275-234 MCULE-5559813353 PubChem-110252911
 27 30 0 0 0
SMALL
GASTEIGER

@<TRIPOS>ATOM
      1 C          12.5384   40.8432    8.3088 C.ar    1  UNL1        0.1522
      2 C          10.3921   40.7015    7.3022 C.ar    1  UNL1        0.0808
      3 C          10.8968   41.3036    6.1429 C.ar    1  UNL1        0.1137
      4 C          13.0355   41.4444    7.1454 C.ar    1  UNL1        0.1332
      5 N          11.2265   40.4881    8.3539 N.ar    1  UNL1       -0.2317
      6 N          12.2061   41.6606    6.0915 N.ar    1  UNL1       -0.2382
      7 C           8.9577   40.2931    7.4070 C.3     1  UNL1        0.0618
      8 C           8.4447   39.7315    6.0783 C.3     1  UNL1        0.0094
      9 C           6.9850   39.3020    6.2099 C.3     1  UNL1        0.0220
     10 C           6.1309   40.4857    6.6531 C.3     1  UNL1        0.0936
     11 C           8.0880   41.4613    7.8741 C.3     1  UNL1        0.0995
     12 N           6.6861   41.0532    7.8788 N.pl3   1  UNL1       -0.2778
     13 C           5.8856   41.1802    9.0624 C.ar    1  UNL1        0.2202
     14 C           3.7562   41.1829   10.0995 C.ar    1  UNL1        0.1034
     15 C           4.3467   41.4195   11.3392 C.ar    1  UNL1        0.0414
     16 C           5.7342   41.5323   11.3998 C.ar    1  UNL1        0.1034
     17 N           4.5302   41.0681    8.9892 N.ar    1  UNL1       -0.2121
     18 N           6.4756   41.4114   10.2680 N.ar    1  UNL1       -0.2121
     19 N          13.3675   40.5910    9.4521 N.pl3   1  UNL1       -0.2821
     20 H          12.9002   40.4459   10.3064 H       1  UNL1        0.1551
     21 C          17.7297   42.4365    8.1871 C.3     1  UNL1        0.0521
     22 C          16.9295   41.4016    8.8919 C.ar    1  UNL1        0.0608
     23 C          14.7993   40.5263    9.4921 C.ar    1  UNL1        0.1328
     24 C          15.4109   39.4861   10.1974 C.ar    1  UNL1        0.0344
     25 C          16.8042   39.4133   10.2433 C.ar    1  UNL1        0.0041
     26 C          17.5725   40.3757    9.5872 C.ar    1  UNL1        0.0148
     27 N          15.5707   41.4546    8.8593 N.ar    1  UNL1       -0.2349
@<TRIPOS>BOND
     1    21    22    1
     2    23    27   ar
     3    23    19    1
     4    24    25   ar
     5    26    22   ar
     6     2     5   ar
     7     3     6   ar
     8     4     1   ar
     9     7     2    1
    10     7     8    1
    11     8     9    1
    12     9    10    1
    13    10    12    1
    14    11    12    1
    15    11     7    1
    16    13    18   ar
    17    14    17   ar
    18    15    16   ar
    19    19     1    1
    20    12    13    1
    21    22    27   ar
    22    23    24   ar
    23    25    26   ar
    24     1     5   ar
    25     2     3   ar
    26     4     6   ar
    27    13    17   ar
    28    14    15   ar
    29    16    18   ar
    30    19    20    1
@<TRIPOS>MOLECULE
MolPort-020-275-234 MCULE-5559813353 PubChem-110252911
 27 30 0 0 0
SMALL
GASTEIGER

@<TRIPOS>ATOM
      1 C          12.9663   41.1804    8.4146 C.ar    1  UNL1        0.1522
      2 C          11.2513   41.2696   10.0549 C.ar    1  UNL1        0.0808
      3 C          11.9879   40.4025   10.8714 C.ar    1  UNL1        0.1137
      4 C          13.6972   40.3139    9.2374 C.ar    1  UNL1        0.1332
      5 N          11.7602   41.6346    8.8484 N.ar    1  UNL1       -0.2317
      6 N          13.1932   39.9454   10.4439 N.ar    1  UNL1       -0.2382
      7 C           9.9189   41.7975   10.4810 C.3     1  UNL1        0.0618
      8 C           9.5535   41.3069   11.8845 C.3     1  UNL1        0.0094
      9 C           8.1998   41.8715   12.3101 C.3     1  UNL1        0.0220
     10 C           7.1256   41.4635   11.3067 C.3     1  UNL1        0.0936
     11 C           8.8320   41.4192    9.4739 C.3     1  UNL1        0.0995
     12 N           7.5338   41.8721    9.9653 N.pl3   1  UNL1       -0.2778
     13 C           6.6964   42.7174    9.1640 C.ar    1  UNL1        0.2202
     14 C           6.4303   44.1598    7.3043 C.ar    1  UNL1        0.1034
     15 C           5.0850   44.3389    7.6202 C.ar    1  UNL1        0.0414
     16 C           4.5743   43.6783    8.7357 C.ar    1  UNL1        0.1034
     17 N           7.2083   43.3575    8.0763 N.ar    1  UNL1       -0.2121
     18 N           5.3831   42.8837    9.4839 N.ar    1  UNL1       -0.2121
     19 N          13.4486   41.6027    7.1312 N.pl3   1  UNL1       -0.2821
     20 H          13.1140   41.1012    6.3528 H       1  UNL1        0.1551
     21 C          17.7867   43.7667    7.8608 C.3     1  UNL1        0.0521
     22 C          16.4613   43.7425    7.1894 C.ar    1  UNL1        0.0608
     23 C          14.3625   42.6719    6.8531 C.ar    1  UNL1        0.1328
     24 C          13.9827   43.6704    5.9518 C.ar    1  UNL1        0.0344
     25 C          14.8647   44.7161    5.6733 C.ar    1  UNL1        0.0041
     26 C          16.1135   44.7562    6.2944 C.ar    1  UNL1        0.0148
     27 N          15.5876   42.7324    7.4472 N.ar    1  UNL1       -0.2349
@<TRIPOS>BOND
     1    21    22    1
     2    23    27   ar
     3    23    19    1
     4    24    25   ar
     5    26    22   ar
     6     2     5   ar
     7     3     6   ar
     8     4     1   ar
     9     7     2    1
    10     7     8    1
    11     8     9    1
    12     9    10    1
    13    10    12    1
    14    11    12    1
    15    11     7    1
    16    13    18   ar
    17    14    17   ar
    18    15    16   ar
    19    19     1    1
    20    12    13    1
    21    22    27   ar
    22    23    24   ar
    23    25    26   ar
    24     1     5   ar
    25     2     3   ar
    26     4     6   ar
    27    13    17   ar
    28    14    15   ar
    29    16    18   ar
    30    19    20    1
@<TRIPOS>MOLECULE
MolPort-020-275-234 MCULE-5559813353 PubChem-110252911
 27 30 0 0 0
SMALL
GASTEIGER

@<TRIPOS>ATOM
      1 C          12.0146   41.5012    6.6157 C.ar    1  UNL1        0.1522
      2 C           9.8223   41.8886    7.4426 C.ar    1  UNL1        0.0808
      3 C           9.2903   41.5326    6.1971 C.ar    1  UNL1        0.1137
      4 C          11.4745   41.1459    5.3730 C.ar    1  UNL1        0.1332
      5 N          11.1701   41.8637    7.6179 N.ar    1  UNL1       -0.2317
      6 N          10.1283   41.1695    5.1920 N.ar    1  UNL1       -0.2382
      7 C           8.9405   42.2975    8.5786 C.3     1  UNL1        0.0618
      8 C           9.7618   42.5960    9.8357 C.3     1  UNL1        0.0094
      9 C           8.8468   43.0304   10.9788 C.3     1  UNL1        0.0220
     10 C           7.8146   41.9436   11.2624 C.3     1  UNL1        0.0936
     11 C           7.8824   41.2304    8.8625 C.3     1  UNL1        0.0995
     12 N           7.0988   41.6204   10.0312 N.pl3   1  UNL1       -0.2778
     13 C           5.6688   41.7107    9.9629 C.ar    1  UNL1        0.2202
     14 C           3.5378   40.7828   10.4190 C.ar    1  UNL1        0.1034
     15 C           2.9188   41.8868    9.8362 C.ar    1  UNL1        0.0414
     16 C           3.7240   42.8995    9.3189 C.ar    1  UNL1        0.1034
     17 N           4.8933   40.7136   10.4723 N.ar    1  UNL1       -0.2121
     18 N           5.0765   42.7954    9.3906 N.ar    1  UNL1       -0.2121
     19 N          13.4275   41.4949    6.8639 N.pl3   1  UNL1       -0.2821
     20 H          13.8121   40.6436    7.1747 H       1  UNL1        0.1551
     21 C          17.6671   43.6649    8.0266 C.3     1  UNL1        0.0521
     22 C          16.3954   43.6617    7.2579 C.ar    1  UNL1        0.0608
     23 C          14.3434   42.5874    6.7108 C.ar    1  UNL1        0.1328
     24 C          14.0164   43.6281    5.8370 C.ar    1  UNL1        0.0344
     25 C          14.9007   44.6968    5.6799 C.ar    1  UNL1        0.0041
     26 C          16.0995   44.7176    6.3936 C.ar    1  UNL1        0.0148
     27 N          15.5202   42.6299    7.3969 N.ar    1  UNL1       -0.2349
@<TRIPOS>BOND
     1    21    22    1
     2    23    27   ar
     3    23    19    1
     4    24    25   ar
     5    26    22   ar
     6     2     5   ar
     7     3     6   ar
     8     4     1   ar
     9     7     2    1
    10     7     8    1
    11     8     9    1
    12     9    10    1
    13    10    12    1
    14    11    12    1
    15    11     7    1
    16    13    18   ar
    17    14    17   ar
    18    15    16   ar
    19    19     1    1
    20    12    13    1
    21    22    27   ar
    22    23    24   ar
    23    25    26   ar
    24     1     5   ar
    25     2     3   ar
    26     4     6   ar
    27    13    17   ar
    28    14    15   ar
    29    16    18   ar
    30    19    20    1
@<TRIPOS>MOLECULE
MolPort-020-275-234 MCULE-5559813353 PubChem-110252911
 27 30 0 0 0
SMALL
GASTEIGER

@<TRIPOS>ATOM
      1 C          14.1660   40.0799    9.0409 C.ar    1  UNL1        0.1522
      2 C          11.8322   40.4603    9.2614 C.ar    1  UNL1        0.0808
      3 C          11.6034   39.0794    9.2152 C.ar    1  UNL1        0.1137
      4 C          13.9288   38.7001    8.9961 C.ar    1  UNL1        0.1332
      5 N          13.1073   40.9230    9.1725 N.ar    1  UNL1       -0.2317
      6 N          12.6565   38.2320    9.0839 N.ar    1  UNL1       -0.2382
      7 C          10.7053   41.4326    9.4028 C.3     1  UNL1        0.0618
      8 C          11.2209   42.8255    9.7741 C.3     1  UNL1        0.0094
      9 C          10.0585   43.8088    9.8949 C.3     1  UNL1        0.0220
     10 C           9.0627   43.3135   10.9390 C.3     1  UNL1        0.0936
     11 C           9.6830   40.9412   10.4286 C.3     1  UNL1        0.0995
     12 N           8.6462   41.9539   10.6064 N.pl3   1  UNL1       -0.2778
     13 C           7.2602   41.6281   10.4313 C.ar    1  UNL1        0.2202
     14 C           5.1424   41.1328   11.3691 C.ar    1  UNL1        0.1034
     15 C           4.5937   41.0067   10.0945 C.ar    1  UNL1        0.0414
     16 C           5.4261   41.2024    8.9943 C.ar    1  UNL1        0.1034
     17 N           6.4576   41.4393   11.5153 N.ar    1  UNL1       -0.2121
     18 N           6.7366   41.5079    9.1798 N.ar    1  UNL1       -0.2121
     19 N          15.4877   40.6305    8.9523 N.pl3   1  UNL1       -0.2821
     20 H          16.2016   40.1264    9.4056 H       1  UNL1        0.1551
     21 C          14.6026   44.1134    5.6175 C.3     1  UNL1        0.0521
     22 C          15.4818   43.5345    6.6664 C.ar    1  UNL1        0.0608
     23 C          15.8873   41.8315    8.2786 C.ar    1  UNL1        0.1328
     24 C          17.1003   42.4321    8.6273 C.ar    1  UNL1        0.0344
     25 C          17.4993   43.6019    7.9782 C.ar    1  UNL1        0.0041
     26 C          16.6873   44.1601    6.9902 C.ar    1  UNL1        0.0148
     27 N          15.1112   42.3953    7.3106 N.ar    1  UNL1       -0.2349
@<TRIPOS>BOND
     1    21    22    1
     2    23    27   ar
     3    23    19    1
     4    24    25   ar
     5    26    22   ar
     6     2     5   ar
     7     3     6   ar
     8     4     1   ar
     9     7     2    1
    10     7     8    1
    11     8     9    1
    12     9    10    1
    13    10    12    1
    14    11    12    1
    15    11     7    1
    16    13    18   ar
    17    14    17   ar
    18    15    16   ar
    19    19     1    1
    20    12    13    1
    21    22    27   ar
    22    23    24   ar
    23    25    26   ar
    24     1     5   ar
    25     2     3   ar
    26     4     6   ar
    27    13    17   ar
    28    14    15   ar
    29    16    18   ar
    30    19    20    1
@<TRIPOS>MOLECULE
MolPort-020-275-234 MCULE-5559813353 PubChem-110252911
 27 30 0 0 0
SMALL
GASTEIGER

@<TRIPOS>ATOM
      1 C           7.8900   40.7607    6.7006 C.ar    1  UNL1        0.1522
      2 C          10.1433   40.0562    6.4429 C.ar    1  UNL1        0.0808
      3 C           9.7502   39.1708    5.4316 C.ar    1  UNL1        0.1137
      4 C           7.5051   39.8729    5.6877 C.ar    1  UNL1        0.1332
      5 N           9.2025   40.8268    7.0503 N.ar    1  UNL1       -0.2317
      6 N           8.4410   39.1000    5.0777 N.ar    1  UNL1       -0.2382
      7 C          11.5722   40.1681    6.8686 C.3     1  UNL1        0.0618
      8 C          11.8522   39.2985    8.0972 C.3     1  UNL1        0.0094
      9 C          13.3196   39.4103    8.5053 C.3     1  UNL1        0.0220
     10 C          13.6718   40.8667    8.7920 C.3     1  UNL1        0.0936
     11 C          11.9514   41.6251    7.1374 C.3     1  UNL1        0.0995
     12 N          13.3224   41.6875    7.6358 N.pl3   1  UNL1       -0.2778
     13 C          14.3046   42.5099    6.9902 C.ar    1  UNL1        0.2202
     14 C          16.5120   43.3630    6.8929 C.ar    1  UNL1        0.1034
     15 C          16.1945   44.0876    5.7459 C.ar    1  UNL1        0.0414
     16 C          14.8982   43.9952    5.2433 C.ar    1  UNL1        0.1034
     17 N          15.5681   42.5915    7.4920 N.ar    1  UNL1       -0.2121
     18 N          13.9810   43.2130    5.8695 N.ar    1  UNL1       -0.2121
     19 N           6.9455   41.6004    7.3794 N.pl3   1  UNL1       -0.2821
     20 H           6.5710   42.3463    6.8575 H       1  UNL1        0.1551
     21 C           7.8640   41.6966   12.1942 C.3     1  UNL1        0.0521
     22 C           6.9041   41.5179   11.0740 C.ar    1  UNL1        0.0608
     23 C           6.4850   41.4768    8.7316 C.ar    1  UNL1        0.1328
     24 C           5.1369   41.1904    8.9646 C.ar    1  UNL1        0.0344
     25 C           4.6774   41.0682   10.2771 C.ar    1  UNL1        0.0041
     26 C           5.5639   41.2322   11.3421 C.ar    1  UNL1        0.0148
     27 N           7.3318   41.6328    9.7880 N.ar    1  UNL1       -0.2349
@<TRIPOS>BOND
     1    21    22    1
     2    23    27   ar
     3    23    19    1
     4    24    25   ar
     5    26    22   ar
     6     2     5   ar
     7     3     6   ar
     8     4     1   ar
     9     7     2    1
    10     7     8    1
    11     8     9    1
    12     9    10    1
    13    10    12    1
    14    11    12    1
    15    11     7    1
    16    13    18   ar
    17    14    17   ar
    18    15    16   ar
    19    19     1    1
    20    12    13    1
    21    22    27   ar
    22    23    24   ar
    23    25    26   ar
    24     1     5   ar
    25     2     3   ar
    26     4     6   ar
    27    13    17   ar
    28    14    15   ar
    29    16    18   ar
    30    19    20    1
@<TRIPOS>MOLECULE
MolPort-020-275-234 MCULE-5559813353 PubChem-110252911
 27 30 0 0 0
SMALL
GASTEIGER

@<TRIPOS>ATOM
      1 C           8.5576   39.8695    5.5155 C.ar    1  UNL1        0.1522
      2 C          10.9288   39.8853    5.6465 C.ar    1  UNL1        0.0808
      3 C          11.0014   39.2561    4.3975 C.ar    1  UNL1        0.1137
      4 C           8.6388   39.2409    4.2664 C.ar    1  UNL1        0.1332
      5 N           9.7088   40.1744    6.1719 N.ar    1  UNL1       -0.2317
      6 N           9.8552   38.9490    3.7368 N.ar    1  UNL1       -0.2382
      7 C          12.1623   40.2410    6.4128 C.3     1  UNL1        0.0618
      8 C          12.2197   39.4913    7.7464 C.3     1  UNL1        0.0094
      9 C          13.4949   39.8521    8.5055 C.3     1  UNL1        0.0220
     10 C          13.5547   41.3585    8.7383 C.3     1  UNL1        0.0936
     11 C          12.2528   41.7514    6.6351 C.3     1  UNL1        0.0995
     12 N          13.4185   42.0531    7.4609 N.pl3   1  UNL1       -0.2778
     13 C          14.4154   42.9840    7.0166 C.ar    1  UNL1        0.2202
     14 C          14.9942   44.9385    5.8104 C.ar    1  UNL1        0.1034
     15 C          16.3317   44.7769    6.1663 C.ar    1  UNL1        0.0414
     16 C          16.6767   43.6867    6.9624 C.ar    1  UNL1        0.1034
     17 N          14.0646   44.0454    6.2385 N.ar    1  UNL1       -0.2121
     18 N          15.7192   42.8144    7.3717 N.ar    1  UNL1       -0.2121
     19 N           7.3010   40.2009    6.1231 N.pl3   1  UNL1       -0.2821
     20 H           6.5103   39.7283    5.7758 H       1  UNL1        0.1551
     21 C           5.5192   44.5090    7.6397 C.3     1  UNL1        0.0521
     22 C           6.2089   43.2277    7.9409 C.ar    1  UNL1        0.0608
     23 C           7.0656   41.1422    7.1788 C.ar    1  UNL1        0.1328
     24 C           7.4923   40.8298    8.4726 C.ar    1  UNL1        0.0344
     25 C           7.2681   41.7387    9.5082 C.ar    1  UNL1        0.0041
     26 C           6.6224   42.9472    9.2447 C.ar    1  UNL1        0.0148
     27 N           6.4370   42.3288    6.9459 N.ar    1  UNL1       -0.2349
@<TRIPOS>BOND
     1    21    22    1
     2    23    27   ar
     3    23    19    1
     4    24    25   ar
     5    26    22   ar
     6     2     5   ar
     7     3     6   ar
     8     4     1   ar
     9     7     2    1
    10     7     8    1
    11     8     9    1
    12     9    10    1
    13    10    12    1
    14    11    12    1
    15    11     7    1
    16    13    18   ar
    17    14    17   ar
    18    15    16   ar
    19    19     1    1
    20    12    13    1
    21    22    27   ar
    22    23    24   ar
    23    25    26   ar
    24     1     5   ar
    25     2     3   ar
    26     4     6   ar
    27    13    17   ar
    28    14    15   ar
    29    16    18   ar
    30    19    20    1
