@<TRIPOS>MOLECULE
MolPort-010-688-226 35511174 ChemDiv-G952-0704 MCULE-3667292016 PubChem-51695112 ZINC000035511174 ZINC35511174
 22 24 0 0 0
SMALL
GASTEIGER

@<TRIPOS>ATOM
      1 C          15.8029   43.8862    6.0457 C.ar    1  UNL1        0.1643
      2 C          13.7763   43.3454    6.1429 C.ar    1  UNL1        0.2195
      3 C          13.7708   41.5284    7.6664 C.ar    1  UNL1        0.1879
      4 N          15.1119   44.7142    5.2159 N.ar    1  UNL1       -0.1310
      5 N          13.8181   44.3720    5.2767 N.ar    1  UNL1       -0.1202
      6 N          15.0241   42.0285    7.4714 N.ar    1  UNL1       -0.1400
      7 N          14.9514   43.0344    6.6157 N.ar    1  UNL1       -0.1881
      8 S          12.5621   42.3637    6.7470 S.2     1  UNL1       -0.0111
      9 C          12.6633   40.4206    9.6877 C.2     1  UNL1        0.2276
     10 N          13.5308   40.4253    8.5483 N.am    1  UNL1       -0.2628
     11 O          11.9975   41.4402   10.0079 O.2     1  UNL1       -0.2747
     12 H          14.0095   39.5878    8.3517 H       1  UNL1        0.1568
     13 C          12.5209   39.1759   10.4890 C.3     1  UNL1        0.0854
     14 C          13.8097   38.8987   11.2425 C.3     1  UNL1        0.0096
     15 C          14.2146   37.4447   11.0804 C.3     1  UNL1        0.0005
     16 C          14.9795   37.2664    9.7884 C.3     1  UNL1        0.0000
     17 C          14.6146   35.8849    9.3004 C.3     1  UNL1        0.0000
     18 C          13.1916   35.6607    9.7631 C.3     1  UNL1        0.0000
     19 C          12.9901   36.5490   10.9776 C.3     1  UNL1        0.0000
     20 C          17.2768   43.9116    6.2635 C.3     1  UNL1        0.0677
     21 C          17.6408   43.9400    8.7096 C.3     1  UNL1        0.0005
     22 C          17.6379   43.0697    7.4709 C.3     1  UNL1        0.0080
@<TRIPOS>BOND
     1    21    22    1
     2    22    20    1
     3    20     1    1
     4     2     8   ar
     5     3     8   ar
     6     3    10    1
     7    13     9    1
     8    13    14    1
     9    14    15    1
    10    15    16    1
    11    16    17    1
    12    17    18    1
    13    18    19    1
    14    19    15    1
    15     4     5   ar
    16    10     9   am
    17     7     6   ar
    18     7     1   ar
    19     7     2   ar
    20     1     4   ar
    21     2     5   ar
    22     3     6   ar
    23     9    11    2
    24    10    12    1
@<TRIPOS>MOLECULE
MolPort-010-688-226 35511174 ChemDiv-G952-0704 MCULE-3667292016 PubChem-51695112 ZINC000035511174 ZINC35511174
 22 24 0 0 0
SMALL
GASTEIGER

@<TRIPOS>ATOM
      1 C          16.8939   43.1668    7.6846 C.ar    1  UNL1        0.1643
      2 C          15.6952   44.1049    6.2382 C.ar    1  UNL1        0.2195
      3 C          13.7187   42.7950    6.2371 C.ar    1  UNL1        0.1879
      4 N          17.5963   44.2181    7.1816 N.ar    1  UNL1       -0.1310
      5 N          16.8333   44.8193    6.2590 N.ar    1  UNL1       -0.1202
      6 N          14.6368   42.3346    7.1339 N.ar    1  UNL1       -0.1400
      7 N          15.7074   43.1096    7.0810 N.ar    1  UNL1       -0.1881
      8 S          14.2669   44.1913    5.3691 S.2     1  UNL1       -0.0111
      9 C          11.4778   41.9054    7.0896 C.2     1  UNL1        0.2276
     10 N          12.4485   42.1549    6.0667 N.am    1  UNL1       -0.2628
     11 O          11.6744   42.2646    8.2803 O.2     1  UNL1       -0.2747
     12 H          12.2204   41.8571    5.1565 H       1  UNL1        0.1568
     13 C          10.1979   41.2383    6.7313 C.3     1  UNL1        0.0854
     14 C           9.0293   42.0433    7.2718 C.3     1  UNL1        0.0096
     15 C           8.0922   41.1487    8.0631 C.3     1  UNL1        0.0005
     16 C           6.7133   41.1750    7.4435 C.3     1  UNL1        0.0000
     17 C           5.7563   41.0341    8.6028 C.3     1  UNL1        0.0000
     18 C           6.4390   41.7142    9.7693 C.3     1  UNL1        0.0000
     19 C           7.9295   41.6580    9.4865 C.3     1  UNL1        0.0000
     20 C          17.3818   42.2179    8.7248 C.3     1  UNL1        0.0677
     21 C          16.8840   40.1203    9.9368 C.3     1  UNL1        0.0005
     22 C          16.3088   41.1944    9.0383 C.3     1  UNL1        0.0080
@<TRIPOS>BOND
     1    21    22    1
     2    22    20    1
     3    20     1    1
     4     2     8   ar
     5     3     8   ar
     6     3    10    1
     7    13     9    1
     8    13    14    1
     9    14    15    1
    10    15    16    1
    11    16    17    1
    12    17    18    1
    13    18    19    1
    14    19    15    1
    15     4     5   ar
    16    10     9   am
    17     7     6   ar
    18     7     1   ar
    19     7     2   ar
    20     1     4   ar
    21     2     5   ar
    22     3     6   ar
    23     9    11    2
    24    10    12    1
@<TRIPOS>MOLECULE
MolPort-010-688-226 35511174 ChemDiv-G952-0704 MCULE-3667292016 PubChem-51695112 ZINC000035511174 ZINC35511174
 22 24 0 0 0
SMALL
GASTEIGER

@<TRIPOS>ATOM
      1 C          16.9012   43.2295    7.6646 C.ar    1  UNL1        0.1643
      2 C          15.6576   44.1127    6.2215 C.ar    1  UNL1        0.2195
      3 C          13.6602   42.8440    6.3751 C.ar    1  UNL1        0.1879
      4 N          17.5994   44.2384    7.0761 N.ar    1  UNL1       -0.1310
      5 N          16.8079   44.8044    6.1555 N.ar    1  UNL1       -0.1202
      6 N          14.6081   42.4140    7.2558 N.ar    1  UNL1       -0.1400
      7 N          15.6888   43.1637    7.1157 N.ar    1  UNL1       -0.1881
      8 S          14.1947   44.1809    5.4103 S.2     1  UNL1       -0.0111
      9 C          11.4352   42.0628    7.3642 C.2     1  UNL1        0.2276
     10 N          12.3729   42.2210    6.2934 N.am    1  UNL1       -0.2628
     11 O          11.6814   42.4983    8.5197 O.2     1  UNL1       -0.2747
     12 H          12.1064   41.8667    5.4144 H       1  UNL1        0.1568
     13 C          10.1307   41.4003    7.0975 C.3     1  UNL1        0.0854
     14 C          10.3655   40.0085    6.5376 C.3     1  UNL1        0.0096
     15 C          10.1812   40.0070    5.0307 C.3     1  UNL1        0.0005
     16 C           8.9220   39.2524    4.6689 C.3     1  UNL1        0.0000
     17 C           9.2235   38.5920    3.3451 C.3     1  UNL1        0.0000
     18 C          10.7047   38.2851    3.3800 C.3     1  UNL1        0.0000
     19 C          11.3263   39.2786    4.3451 C.3     1  UNL1        0.0000
     20 C          17.4170   42.3279    8.7330 C.3     1  UNL1        0.0677
     21 C          17.0569   40.1617    9.8707 C.3     1  UNL1        0.0005
     22 C          16.4087   41.2336    9.0207 C.3     1  UNL1        0.0080
@<TRIPOS>BOND
     1    21    22    1
     2    22    20    1
     3    20     1    1
     4     2     8   ar
     5     3     8   ar
     6     3    10    1
     7    13     9    1
     8    13    14    1
     9    14    15    1
    10    15    16    1
    11    16    17    1
    12    17    18    1
    13    18    19    1
    14    19    15    1
    15     4     5   ar
    16    10     9   am
    17     7     6   ar
    18     7     1   ar
    19     7     2   ar
    20     1     4   ar
    21     2     5   ar
    22     3     6   ar
    23     9    11    2
    24    10    12    1
@<TRIPOS>MOLECULE
MolPort-010-688-226 35511174 ChemDiv-G952-0704 MCULE-3667292016 PubChem-51695112 ZINC000035511174 ZINC35511174
 22 24 0 0 0
SMALL
GASTEIGER

@<TRIPOS>ATOM
      1 C          16.9251   43.2890    7.6812 C.ar    1  UNL1        0.1643
      2 C          15.5581   44.0270    6.2684 C.ar    1  UNL1        0.2195
      3 C          13.7418   42.5107    6.4254 C.ar    1  UNL1        0.1879
      4 N          17.4800   44.3877    7.1010 N.ar    1  UNL1       -0.1310
      5 N          16.6094   44.8613    6.1997 N.ar    1  UNL1       -0.1202
      6 N          14.7495   42.1927    7.2871 N.ar    1  UNL1       -0.1400
      7 N          15.7232   43.0766    7.1463 N.ar    1  UNL1       -0.1881
      8 S          14.0870   43.9193    5.4765 S.2     1  UNL1       -0.0111
      9 C          11.4819   41.7047    7.3100 C.2     1  UNL1        0.2276
     10 N          12.5437   41.7293    6.3493 N.am    1  UNL1       -0.2628
     11 O          11.5186   42.4211    8.3448 O.2     1  UNL1       -0.2747
     12 H          12.4399   41.1521    5.5585 H       1  UNL1        0.1568
     13 C          10.2970   40.8404    7.0634 C.3     1  UNL1        0.0854
     14 C          10.6924   39.3792    7.1819 C.3     1  UNL1        0.0096
     15 C          11.2883   39.1022    8.5503 C.3     1  UNL1        0.0005
     16 C          12.7565   38.7682    8.4122 C.3     1  UNL1        0.0000
     17 C          13.0380   37.7643    9.5041 C.3     1  UNL1        0.0000
     18 C          11.7538   36.9809    9.6672 C.3     1  UNL1        0.0000
     19 C          10.6339   37.8886    9.1913 C.3     1  UNL1        0.0000
     20 C          17.5672   42.4451    8.7280 C.3     1  UNL1        0.0677
     21 C          17.4605   40.2511    9.8647 C.3     1  UNL1        0.0005
     22 C          16.6731   41.2696    9.0681 C.3     1  UNL1        0.0080
@<TRIPOS>BOND
     1    21    22    1
     2    22    20    1
     3    20     1    1
     4     2     8   ar
     5     3     8   ar
     6     3    10    1
     7    13     9    1
     8    13    14    1
     9    14    15    1
    10    15    16    1
    11    16    17    1
    12    17    18    1
    13    18    19    1
    14    19    15    1
    15     4     5   ar
    16    10     9   am
    17     7     6   ar
    18     7     1   ar
    19     7     2   ar
    20     1     4   ar
    21     2     5   ar
    22     3     6   ar
    23     9    11    2
    24    10    12    1
@<TRIPOS>MOLECULE
MolPort-010-688-226 35511174 ChemDiv-G952-0704 MCULE-3667292016 PubChem-51695112 ZINC000035511174 ZINC35511174
 22 24 0 0 0
SMALL
GASTEIGER

@<TRIPOS>ATOM
      1 C          16.0919   43.8745    6.3719 C.ar    1  UNL1        0.1643
      2 C          14.1729   43.2291    5.8150 C.ar    1  UNL1        0.2195
      3 C          13.3189   42.2766    7.8115 C.ar    1  UNL1        0.1879
      4 N          15.9168   44.1787    5.0572 N.ar    1  UNL1       -0.1310
      5 N          14.6926   43.7689    4.6994 N.ar    1  UNL1       -0.1202
      6 N          14.5814   42.7642    7.9768 N.ar    1  UNL1       -0.1400
      7 N          14.9914   43.2785    6.8293 N.ar    1  UNL1       -0.1881
      8 S          12.7183   42.4955    6.2005 S.2     1  UNL1       -0.0111
      9 C          13.0803   40.5892    9.7181 C.2     1  UNL1        0.2276
     10 N          12.6064   41.6554    8.8879 N.am    1  UNL1       -0.2628
     11 O          14.2307   40.1011    9.5638 O.2     1  UNL1       -0.2747
     12 H          11.7016   41.9951    9.0754 H       1  UNL1        0.1568
     13 C          12.2085   40.0709   10.8058 C.3     1  UNL1        0.0854
     14 C          10.7623   40.0564   10.3432 C.3     1  UNL1        0.0096
     15 C          10.0414   41.3033   10.8229 C.3     1  UNL1        0.0005
     16 C           9.4625   41.0634   12.1988 C.3     1  UNL1        0.0000
     17 C           8.1844   41.8664   12.2354 C.3     1  UNL1        0.0000
     18 C           7.6612   41.8493   10.8158 C.3     1  UNL1        0.0000
     19 C           8.8652   41.6319    9.9171 C.3     1  UNL1        0.0000
     20 C          17.3241   44.1423    7.1658 C.3     1  UNL1        0.0677
     21 C          17.9213   42.0118    8.2709 C.3     1  UNL1        0.0005
     22 C          17.2807   43.3692    8.4687 C.3     1  UNL1        0.0080
@<TRIPOS>BOND
     1    21    22    1
     2    22    20    1
     3    20     1    1
     4     2     8   ar
     5     3     8   ar
     6     3    10    1
     7    13     9    1
     8    13    14    1
     9    14    15    1
    10    15    16    1
    11    16    17    1
    12    17    18    1
    13    18    19    1
    14    19    15    1
    15     4     5   ar
    16    10     9   am
    17     7     6   ar
    18     7     1   ar
    19     7     2   ar
    20     1     4   ar
    21     2     5   ar
    22     3     6   ar
    23     9    11    2
    24    10    12    1
@<TRIPOS>MOLECULE
MolPort-010-688-226 35511174 ChemDiv-G952-0704 MCULE-3667292016 PubChem-51695112 ZINC000035511174 ZINC35511174
 22 24 0 0 0
SMALL
GASTEIGER

@<TRIPOS>ATOM
      1 C          16.2362   44.0128    6.7180 C.ar    1  UNL1        0.1643
      2 C          14.4172   43.5051    5.8000 C.ar    1  UNL1        0.2195
      3 C          13.2701   42.3049    7.4930 C.ar    1  UNL1        0.1879
      4 N          16.2602   44.5037    5.4490 N.ar    1  UNL1       -0.1310
      5 N          15.1002   44.1820    4.8612 N.ar    1  UNL1       -0.1202
      6 N          14.4970   42.7296    7.9092 N.ar    1  UNL1       -0.1400
      7 N          15.0762   43.3888    6.9195 N.ar    1  UNL1       -0.1881
      8 S          12.9169   42.7647    5.8597 S.2     1  UNL1       -0.0111
      9 C          11.5191   42.0958    9.3449 C.2     1  UNL1        0.2276
     10 N          12.4018   41.5583    8.3536 N.am    1  UNL1       -0.2628
     11 O          11.4247   43.3372    9.5336 O.2     1  UNL1       -0.2747
     12 H          12.4129   40.5789    8.2537 H       1  UNL1        0.1568
     13 C          10.6726   41.1706   10.1444 C.3     1  UNL1        0.0854
     14 C           9.5336   41.9417   10.7879 C.3     1  UNL1        0.0096
     15 C           8.2790   41.8372    9.9396 C.3     1  UNL1        0.0005
     16 C           8.5343   40.9319    8.7558 C.3     1  UNL1        0.0000
     17 C           7.6983   41.5016    7.6350 C.3     1  UNL1        0.0000
     18 C           7.6692   42.9948    7.8775 C.3     1  UNL1        0.0000
     19 C           7.8984   43.1926    9.3651 C.3     1  UNL1        0.0000
     20 C          17.3385   44.1324    7.7135 C.3     1  UNL1        0.0677
     21 C          18.0577   41.8121    8.1780 C.3     1  UNL1        0.0005
     22 C          17.2672   42.9899    8.7068 C.3     1  UNL1        0.0080
@<TRIPOS>BOND
     1    21    22    1
     2    22    20    1
     3    20     1    1
     4     2     8   ar
     5     3     8   ar
     6     3    10    1
     7    13     9    1
     8    13    14    1
     9    14    15    1
    10    15    16    1
    11    16    17    1
    12    17    18    1
    13    18    19    1
    14    19    15    1
    15     4     5   ar
    16    10     9   am
    17     7     6   ar
    18     7     1   ar
    19     7     2   ar
    20     1     4   ar
    21     2     5   ar
    22     3     6   ar
    23     9    11    2
    24    10    12    1
@<TRIPOS>MOLECULE
MolPort-010-688-226 35511174 ChemDiv-G952-0704 MCULE-3667292016 PubChem-51695112 ZINC000035511174 ZINC35511174
 22 24 0 0 0
SMALL
GASTEIGER

@<TRIPOS>ATOM
      1 C           3.9592   42.9697    9.3208 C.ar    1  UNL1        0.1643
      2 C           5.6756   43.9824    8.6595 C.ar    1  UNL1        0.2195
      3 C           7.4412   42.5334    9.2964 C.ar    1  UNL1        0.1879
      4 N           3.5576   44.1355    8.7453 N.ar    1  UNL1       -0.1310
      5 N           4.6508   44.7834    8.3215 N.ar    1  UNL1       -0.1202
      6 N           6.2205   42.0362    9.6452 N.ar    1  UNL1       -0.1400
      7 N           5.2880   42.8916    9.2603 N.ar    1  UNL1       -0.1881
      8 S           7.3397   44.0680    8.4973 S.2     1  UNL1       -0.0111
      9 C           9.2008   41.5700   10.8822 C.2     1  UNL1        0.2276
     10 N           8.6518   41.8236    9.5842 N.am    1  UNL1       -0.2628
     11 O           8.6183   41.9619   11.9275 O.2     1  UNL1       -0.2747
     12 H           9.1560   41.4757    8.8135 H       1  UNL1        0.1568
     13 C          10.4673   40.7993   10.9990 C.3     1  UNL1        0.0854
     14 C          11.5022   41.3619   10.0407 C.3     1  UNL1        0.0096
     15 C          12.5250   40.2985    9.6835 C.3     1  UNL1        0.0005
     16 C          13.2444   39.8391   10.9314 C.3     1  UNL1        0.0000
     17 C          14.6493   39.5170   10.4819 C.3     1  UNL1        0.0000
     18 C          14.9376   40.4799    9.3510 C.3     1  UNL1        0.0000
     19 C          13.5928   40.8619    8.7592 C.3     1  UNL1        0.0000
     20 C           3.0605   41.9554    9.9404 C.3     1  UNL1        0.0677
     21 C           3.8619   40.2846   11.5784 C.3     1  UNL1        0.0005
     22 C           3.4520   41.7293   11.3870 C.3     1  UNL1        0.0080
@<TRIPOS>BOND
     1    21    22    1
     2    22    20    1
     3    20     1    1
     4     2     8   ar
     5     3     8   ar
     6     3    10    1
     7    13     9    1
     8    13    14    1
     9    14    15    1
    10    15    16    1
    11    16    17    1
    12    17    18    1
    13    18    19    1
    14    19    15    1
    15     4     5   ar
    16    10     9   am
    17     7     6   ar
    18     7     1   ar
    19     7     2   ar
    20     1     4   ar
    21     2     5   ar
    22     3     6   ar
    23     9    11    2
    24    10    12    1
@<TRIPOS>MOLECULE
MolPort-010-688-226 35511174 ChemDiv-G952-0704 MCULE-3667292016 PubChem-51695112 ZINC000035511174 ZINC35511174
 22 24 0 0 0
SMALL
GASTEIGER

@<TRIPOS>ATOM
      1 C          13.9604   37.7857    9.2524 C.ar    1  UNL1        0.1643
      2 C          13.5783   39.8503    9.2761 C.ar    1  UNL1        0.2195
      3 C          11.2930   39.9733    9.8964 C.ar    1  UNL1        0.1879
      4 N          15.1096   38.4247    8.9024 N.ar    1  UNL1       -0.1310
      5 N          14.8690   39.7424    8.9176 N.ar    1  UNL1       -0.1202
      6 N          11.7360   38.6856    9.8289 N.ar    1  UNL1       -0.1400
      7 N          13.0119   38.6933    9.4804 N.ar    1  UNL1       -0.1881
      8 S          12.5245   41.1299    9.5096 S.2     1  UNL1       -0.0111
      9 C           9.4119   41.5878   10.5243 C.2     1  UNL1        0.2276
     10 N           9.9411   40.2851   10.2530 N.am    1  UNL1       -0.2628
     11 O          10.1345   42.6164   10.4502 O.2     1  UNL1       -0.2747
     12 H           9.3138   39.5291   10.3181 H       1  UNL1        0.1568
     13 C           7.9722   41.7317   10.8677 C.3     1  UNL1        0.0854
     14 C           7.1297   41.6238    9.6091 C.3     1  UNL1        0.0096
     15 C           5.6992   42.0455    9.8927 C.3     1  UNL1        0.0005
     16 C           5.3146   41.6416   11.2980 C.3     1  UNL1        0.0000
     17 C           3.8446   41.3054   11.2244 C.3     1  UNL1        0.0000
     18 C           3.6316   40.7472    9.8342 C.3     1  UNL1        0.0000
     19 C           4.7293   41.3324    8.9640 C.3     1  UNL1        0.0000
     20 C          13.7839   36.3088    9.3426 C.3     1  UNL1        0.0677
     21 C          11.9709   35.3460   10.7221 C.3     1  UNL1        0.0005
     22 C          13.3715   35.9200   10.7483 C.3     1  UNL1        0.0080
@<TRIPOS>BOND
     1    21    22    1
     2    22    20    1
     3    20     1    1
     4     2     8   ar
     5     3     8   ar
     6     3    10    1
     7    13     9    1
     8    13    14    1
     9    14    15    1
    10    15    16    1
    11    16    17    1
    12    17    18    1
    13    18    19    1
    14    19    15    1
    15     4     5   ar
    16    10     9   am
    17     7     6   ar
    18     7     1   ar
    19     7     2   ar
    20     1     4   ar
    21     2     5   ar
    22     3     6   ar
    23     9    11    2
    24    10    12    1
@<TRIPOS>MOLECULE
MolPort-010-688-226 35511174 ChemDiv-G952-0704 MCULE-3667292016 PubChem-51695112 ZINC000035511174 ZINC35511174
 22 24 0 0 0
SMALL
GASTEIGER

@<TRIPOS>ATOM
      1 C          16.7795   41.2012    9.1388 C.ar    1  UNL1        0.1643
      2 C          15.9372   42.4366    7.6646 C.ar    1  UNL1        0.2195
      3 C          13.6706   41.7431    7.6039 C.ar    1  UNL1        0.1879
      4 N          17.7654   42.0076    8.6599 N.ar    1  UNL1       -0.1310
      5 N          17.2305   42.7978    7.7196 N.ar    1  UNL1       -0.1202
      6 N          14.3949   41.0437    8.5232 N.ar    1  UNL1       -0.1400
      7 N          15.6427   41.4819    8.5029 N.ar    1  UNL1       -0.1881
      8 S          14.6169   42.9228    6.7574 S.2     1  UNL1       -0.0111
      9 C          11.1887   42.0674    8.1278 C.2     1  UNL1        0.2276
     10 N          12.2759   41.4902    7.3961 N.am    1  UNL1       -0.2628
     11 O          11.3896   42.8995    9.0513 O.2     1  UNL1       -0.2747
     12 H          12.0418   40.8571    6.6794 H       1  UNL1        0.1568
     13 C           9.7930   41.7017    7.7672 C.3     1  UNL1        0.0854
     14 C           8.8192   42.4265    8.6793 C.3     1  UNL1        0.0096
     15 C           8.1676   41.4488    9.6405 C.3     1  UNL1        0.0005
     16 C           6.7198   41.8281    9.8547 C.3     1  UNL1        0.0000
     17 C           6.4197   41.4503   11.2854 C.3     1  UNL1        0.0000
     18 C           7.7199   41.6510   12.0327 C.3     1  UNL1        0.0000
     19 C           8.8305   41.5090   11.0076 C.3     1  UNL1        0.0000
     20 C          16.9487   40.1563   10.1877 C.3     1  UNL1        0.0677
     21 C          18.9394   38.8235   10.8018 C.3     1  UNL1        0.0005
     22 C          17.9237   39.0974    9.7133 C.3     1  UNL1        0.0080
@<TRIPOS>BOND
     1    21    22    1
     2    22    20    1
     3    20     1    1
     4     2     8   ar
     5     3     8   ar
     6     3    10    1
     7    13     9    1
     8    13    14    1
     9    14    15    1
    10    15    16    1
    11    16    17    1
    12    17    18    1
    13    18    19    1
    14    19    15    1
    15     4     5   ar
    16    10     9   am
    17     7     6   ar
    18     7     1   ar
    19     7     2   ar
    20     1     4   ar
    21     2     5   ar
    22     3     6   ar
    23     9    11    2
    24    10    12    1
@<TRIPOS>MOLECULE
MolPort-010-688-226 35511174 ChemDiv-G952-0704 MCULE-3667292016 PubChem-51695112 ZINC000035511174 ZINC35511174
 22 24 0 0 0
SMALL
GASTEIGER

@<TRIPOS>ATOM
      1 C           3.9875   42.8517    9.1258 C.ar    1  UNL1        0.1643
      2 C           5.5209   44.0351    8.3151 C.ar    1  UNL1        0.2195
      3 C           7.3738   42.5567    8.2530 C.ar    1  UNL1        0.1879
      4 N           3.4761   44.0908    8.8919 N.ar    1  UNL1       -0.1310
      5 N           4.4522   44.8479    8.3735 N.ar    1  UNL1       -0.1202
      6 N           6.2578   41.9572    8.7571 N.ar    1  UNL1       -0.1400
      7 N           5.2690   42.8357    8.7611 N.ar    1  UNL1       -0.1881
      8 S           7.1078   44.2115    7.8116 S.2     1  UNL1       -0.0111
      9 C           9.2648   41.4932    6.8994 C.2     1  UNL1        0.2276
     10 N           8.6130   41.8499    8.1236 N.am    1  UNL1       -0.2628
     11 O           8.7758   41.8060    5.7821 O.2     1  UNL1       -0.2747
     12 H           9.0608   41.5830    8.9588 H       1  UNL1        0.1568
     13 C          10.5622   40.7679    6.9500 C.3     1  UNL1        0.0854
     14 C          11.6117   41.5356    6.1659 C.3     1  UNL1        0.0096
     15 C          12.6071   42.1849    7.1104 C.3     1  UNL1        0.0005
     16 C          13.8761   42.5261    6.3626 C.3     1  UNL1        0.0000
     17 C          14.9879   42.3468    7.3683 C.3     1  UNL1        0.0000
     18 C          14.5272   41.2291    8.2781 C.3     1  UNL1        0.0000
     19 C          13.0103   41.2241    8.2177 C.3     1  UNL1        0.0000
     20 C           3.2421   41.7048    9.7170 C.3     1  UNL1        0.0677
     21 C           3.8473   40.2121   11.5938 C.3     1  UNL1        0.0005
     22 C           4.2138   40.6419   10.1892 C.3     1  UNL1        0.0080
@<TRIPOS>BOND
     1    21    22    1
     2    22    20    1
     3    20     1    1
     4     2     8   ar
     5     3     8   ar
     6     3    10    1
     7    13     9    1
     8    13    14    1
     9    14    15    1
    10    15    16    1
    11    16    17    1
    12    17    18    1
    13    18    19    1
    14    19    15    1
    15     4     5   ar
    16    10     9   am
    17     7     6   ar
    18     7     1   ar
    19     7     2   ar
    20     1     4   ar
    21     2     5   ar
    22     3     6   ar
    23     9    11    2
    24    10    12    1
