@<TRIPOS>MOLECULE
MolPort-007-686-748 ChemDiv-D039-3202 MCULE-5150081229 PubChem-23605094 ZINC000006809961 ZINC06809961
 30 32 0 0 0
SMALL
GASTEIGER

@<TRIPOS>ATOM
      1 C          10.3580   41.6770    9.4755 C.2     1  UNL1        0.3088
      2 C           8.1889   41.7752   10.7374 C.3     1  UNL1        0.1165
      3 C           6.7985   41.3122   10.3142 C.3     1  UNL1        0.1154
      4 C           7.0332   42.5280    8.1495 C.3     1  UNL1        0.1154
      5 C           8.4287   42.9955    8.5521 C.3     1  UNL1        0.1165
      6 C           4.9806   42.8984    9.6082 C.2     1  UNL1        0.2839
      7 O          11.0640   42.0287    8.4911 O.2     1  UNL1       -0.2522
      8 O           4.3451   42.6067   10.6583 O.2     1  UNL1       -0.2666
      9 N          10.9192   40.8639   10.5147 N.am    1  UNL1       -0.2552
     10 N           8.9862   42.0855    9.5518 N.am    1  UNL1       -0.2604
     11 N           6.2448   42.2588    9.3494 N.am    1  UNL1       -0.2701
     12 H          10.3294   40.6111   11.2613 H       1  UNL1        0.1578
     13 C          14.3789   40.0358    9.9936 C.ar    1  UNL1        0.0857
     14 C          14.0598   39.3969   11.1862 C.ar    1  UNL1        0.0408
     15 C          14.9828   38.5714   12.0149 C.3     1  UNL1        0.0500
     16 C          12.2705   40.3906   10.5516 C.ar    1  UNL1        0.1085
     17 C          13.2188   40.6733    9.5926 C.ar    1  UNL1        0.0153
     18 C          13.0116   41.5040    8.3715 C.3     1  UNL1        0.0342
     19 N          12.7734   39.6113   11.5301 N.ar    1  UNL1       -0.3451
     20 H          12.3026   39.2716   12.3252 H       1  UNL1        0.1668
     21 C          15.6805   40.0371    9.2952 C.2     1  UNL1        0.3421
     22 O          16.3981   38.9999    9.2939 O.2     1  UNL1       -0.2449
     23 O          16.1142   41.1891    8.6357 O.3     1  UNL1       -0.4454
     24 C          17.3842   43.2054    8.3790 C.3     1  UNL1        0.0513
     25 C          17.3689   41.7903    8.9181 C.3     1  UNL1        0.2089
     26 C           4.3957   43.8928    8.6844 C.ar    1  UNL1        0.1987
     27 C           5.1143   44.6471    7.7792 C.ar    1  UNL1        0.0455
     28 C           4.1720   45.4291    7.1351 C.ar    1  UNL1        0.0440
     29 C           2.9460   45.1020    7.6868 C.ar    1  UNL1        0.1798
     30 O           3.1218   44.1835    8.6054 O.2     1  UNL1       -0.4458
@<TRIPOS>BOND
     1    24    25    1
     2    25    23    1
     3    21    23    1
     4    21    13    1
     5    14    19   ar
     6    15    14    1
     7    16     9    1
     8     1    10   am
     9     2    10    1
    10     2     3    1
    11     3    11    1
    12     4    11    1
    13     4     5    1
    14     5    10    1
    15     6    26    1
    16    26    30   ar
    17    27    28   ar
    18    29    30   ar
    19    17    13   ar
    20    18    17    1
    21    19    16   ar
    22     9     1   am
    23    11     6   am
    24    21    22    2
    25    13    14   ar
    26    16    17   ar
    27     1     7    2
    28     6     8    2
    29    26    27   ar
    30    28    29   ar
    31    19    20    1
    32     9    12    1
@<TRIPOS>MOLECULE
MolPort-007-686-748 ChemDiv-D039-3202 MCULE-5150081229 PubChem-23605094 ZINC000006809961 ZINC06809961
 30 32 0 0 0
SMALL
GASTEIGER

@<TRIPOS>ATOM
      1 C          12.1058   41.0718    9.1118 C.2     1  UNL1        0.3088
      2 C          12.7481   39.2372   10.7019 C.3     1  UNL1        0.1165
      3 C          13.8997   39.1775   11.7004 C.3     1  UNL1        0.1154
      4 C          15.4973   39.9018    9.9277 C.3     1  UNL1        0.1154
      5 C          14.3575   39.9739    8.9160 C.3     1  UNL1        0.1165
      6 C          15.9814   37.8227   11.3137 C.2     1  UNL1        0.2839
      7 O          12.3763   41.7947    8.1140 O.2     1  UNL1       -0.2522
      8 O          15.6298   37.0517   12.2484 O.2     1  UNL1       -0.2666
      9 N          10.8254   41.1687    9.7496 N.am    1  UNL1       -0.2552
     10 N          13.0860   40.1550    9.6153 N.am    1  UNL1       -0.2604
     11 N          15.1522   38.9529   10.9833 N.am    1  UNL1       -0.2701
     12 H          10.6606   40.5874   10.5269 H       1  UNL1        0.1578
     13 C           7.9399   42.8025    8.3599 C.ar    1  UNL1        0.0857
     14 C           8.5342   43.7856    9.1426 C.ar    1  UNL1        0.0408
     15 C           8.0418   45.1800    9.3252 C.3     1  UNL1        0.0500
     16 C           9.7671   42.0447    9.3444 C.ar    1  UNL1        0.1085
     17 C           8.7423   41.6844    8.4967 C.ar    1  UNL1        0.0153
     18 C           8.5566   40.3471    7.8631 C.3     1  UNL1        0.0342
     19 N           9.6500   43.3267    9.7453 N.ar    1  UNL1       -0.3451
     20 H          10.2503   43.8216   10.3486 H       1  UNL1        0.1668
     21 C           6.7107   42.9203    7.5493 C.2     1  UNL1        0.3421
     22 O           6.7840   43.2535    6.3350 O.2     1  UNL1       -0.2449
     23 O           5.4675   42.6613    8.1302 O.3     1  UNL1       -0.4454
     24 C           4.1641   44.6592    7.8987 C.3     1  UNL1        0.0513
     25 C           4.7573   43.6506    8.8600 C.3     1  UNL1        0.2089
     26 C          17.2374   37.5279   10.5926 C.ar    1  UNL1        0.1987
     27 C          18.3777   38.3034   10.6448 C.ar    1  UNL1        0.0455
     28 C          19.2898   37.6566    9.8299 C.ar    1  UNL1        0.0440
     29 C          18.6490   36.5339    9.3364 C.ar    1  UNL1        0.1798
     30 O          17.4290   36.4931    9.8140 O.2     1  UNL1       -0.4458
@<TRIPOS>BOND
     1    24    25    1
     2    25    23    1
     3    21    23    1
     4    21    13    1
     5    14    19   ar
     6    15    14    1
     7    16     9    1
     8     1    10   am
     9     2    10    1
    10     2     3    1
    11     3    11    1
    12     4    11    1
    13     4     5    1
    14     5    10    1
    15     6    26    1
    16    26    30   ar
    17    27    28   ar
    18    29    30   ar
    19    17    13   ar
    20    18    17    1
    21    19    16   ar
    22     9     1   am
    23    11     6   am
    24    21    22    2
    25    13    14   ar
    26    16    17   ar
    27     1     7    2
    28     6     8    2
    29    26    27   ar
    30    28    29   ar
    31    19    20    1
    32     9    12    1
@<TRIPOS>MOLECULE
MolPort-007-686-748 ChemDiv-D039-3202 MCULE-5150081229 PubChem-23605094 ZINC000006809961 ZINC06809961
 30 32 0 0 0
SMALL
GASTEIGER

@<TRIPOS>ATOM
      1 C           8.6495   40.3732    6.5992 C.2     1  UNL1        0.3088
      2 C          10.8379   39.9459    5.4435 C.3     1  UNL1        0.1165
      3 C          11.1060   39.4408    4.0294 C.3     1  UNL1        0.1154
      4 C           9.4959   37.5678    4.3743 C.3     1  UNL1        0.1154
      5 C           9.2095   38.0615    5.7893 C.3     1  UNL1        0.1165
      6 C          11.8494   37.0921    3.5298 C.2     1  UNL1        0.2839
      7 O           7.5575   39.9424    7.0608 O.2     1  UNL1       -0.2522
      8 O          12.9727   37.5438    3.1753 O.2     1  UNL1       -0.2666
      9 N           9.0170   41.7480    6.7743 N.am    1  UNL1       -0.2552
     10 N           9.5236   39.4862    5.8894 N.am    1  UNL1       -0.2604
     11 N          10.8271   38.0085    3.9649 N.am    1  UNL1       -0.2701
     12 H           9.8768   42.0398    6.3939 H       1  UNL1        0.1578
     13 C           6.5202   43.9922    8.0613 C.ar    1  UNL1        0.0857
     14 C           7.6527   44.2896    8.8104 C.ar    1  UNL1        0.0408
     15 C           7.7493   45.3146    9.8875 C.3     1  UNL1        0.0500
     16 C           8.2311   42.7302    7.4593 C.ar    1  UNL1        0.1085
     17 C           6.9035   42.9860    7.1933 C.ar    1  UNL1        0.0153
     18 C           6.0664   42.3010    6.1665 C.3     1  UNL1        0.0342
     19 N           8.6993   43.5211    8.4458 N.ar    1  UNL1       -0.3451
     20 H           9.6099   43.5347    8.8198 H       1  UNL1        0.1668
     21 C           5.1852   44.6160    8.1645 C.2     1  UNL1        0.3421
     22 O           4.8982   45.6161    7.4515 O.2     1  UNL1       -0.2449
     23 O           4.2414   44.0954    9.0524 O.3     1  UNL1       -0.4454
     24 C           3.0419   42.2466    9.9945 C.3     1  UNL1        0.0513
     25 C           4.4021   42.8223    9.6598 C.3     1  UNL1        0.2089
     26 C          11.6318   35.6309    3.4844 C.ar    1  UNL1        0.1987
     27 C          12.5742   34.6820    3.8253 C.ar    1  UNL1        0.0455
     28 C          11.9436   33.4652    3.6356 C.ar    1  UNL1        0.0440
     29 C          10.6638   33.7502    3.1937 C.ar    1  UNL1        0.1798
     30 O          10.5175   35.0506    3.1170 O.2     1  UNL1       -0.4458
@<TRIPOS>BOND
     1    24    25    1
     2    25    23    1
     3    21    23    1
     4    21    13    1
     5    14    19   ar
     6    15    14    1
     7    16     9    1
     8     1    10   am
     9     2    10    1
    10     2     3    1
    11     3    11    1
    12     4    11    1
    13     4     5    1
    14     5    10    1
    15     6    26    1
    16    26    30   ar
    17    27    28   ar
    18    29    30   ar
    19    17    13   ar
    20    18    17    1
    21    19    16   ar
    22     9     1   am
    23    11     6   am
    24    21    22    2
    25    13    14   ar
    26    16    17   ar
    27     1     7    2
    28     6     8    2
    29    26    27   ar
    30    28    29   ar
    31    19    20    1
    32     9    12    1
@<TRIPOS>MOLECULE
MolPort-007-686-748 ChemDiv-D039-3202 MCULE-5150081229 PubChem-23605094 ZINC000006809961 ZINC06809961
 30 32 0 0 0
SMALL
GASTEIGER

@<TRIPOS>ATOM
      1 C          14.2075   36.9081    9.1738 C.2     1  UNL1        0.3088
      2 C          12.9894   38.7067    7.9135 C.3     1  UNL1        0.1165
      3 C          12.9721   40.2138    8.1477 C.3     1  UNL1        0.1154
      4 C          12.4932   39.8500   10.5680 C.3     1  UNL1        0.1154
      5 C          12.5133   38.3393   10.3550 C.3     1  UNL1        0.1165
      6 C          11.0298   41.4167    9.1962 C.2     1  UNL1        0.2839
      7 O          14.3984   36.2617   10.2401 O.2     1  UNL1       -0.2522
      8 O          10.7965   41.9677    8.0855 O.2     1  UNL1       -0.2666
      9 N          14.8998   36.5431    7.9725 N.am    1  UNL1       -0.2552
     10 N          13.3001   38.0178    9.1650 N.am    1  UNL1       -0.2604
     11 N          12.1457   40.5140    9.3141 N.am    1  UNL1       -0.2701
     12 H          14.7217   37.0785    7.1657 H       1  UNL1        0.1578
     13 C          17.0917   33.8727    6.9768 C.ar    1  UNL1        0.0857
     14 C          17.2421   33.9293    8.3575 C.ar    1  UNL1        0.0408
     15 C          18.1249   33.0565    9.1815 C.3     1  UNL1        0.0500
     16 C          15.8301   35.4605    7.8541 C.ar    1  UNL1        0.1085
     17 C          16.1794   34.8636    6.6623 C.ar    1  UNL1        0.0153
     18 C          15.6619   35.2299    5.3124 C.3     1  UNL1        0.0342
     19 N          16.4734   34.8975    8.8967 N.ar    1  UNL1       -0.3451
     20 H          16.3983   35.1409    9.8476 H       1  UNL1        0.1668
     21 C          17.7612   32.9506    6.0369 C.2     1  UNL1        0.3421
     22 O          18.8086   33.3126    5.4345 O.2     1  UNL1       -0.2449
     23 O          17.2324   31.6768    5.8175 O.3     1  UNL1       -0.4454
     24 C          15.0095   31.4442    4.9521 C.3     1  UNL1        0.0513
     25 C          15.8989   31.3444    6.1737 C.3     1  UNL1        0.2089
     26 C          10.1390   41.7231   10.3351 C.ar    1  UNL1        0.1987
     27 C           9.7923   40.8295   11.3281 C.ar    1  UNL1        0.0455
     28 C           8.9557   41.5376   12.1725 C.ar    1  UNL1        0.0440
     29 C           8.8476   42.8109   11.6419 C.ar    1  UNL1        0.1798
     30 O           9.5669   42.8810   10.5483 O.2     1  UNL1       -0.4458
@<TRIPOS>BOND
     1    24    25    1
     2    25    23    1
     3    21    23    1
     4    21    13    1
     5    14    19   ar
     6    15    14    1
     7    16     9    1
     8     1    10   am
     9     2    10    1
    10     2     3    1
    11     3    11    1
    12     4    11    1
    13     4     5    1
    14     5    10    1
    15     6    26    1
    16    26    30   ar
    17    27    28   ar
    18    29    30   ar
    19    17    13   ar
    20    18    17    1
    21    19    16   ar
    22     9     1   am
    23    11     6   am
    24    21    22    2
    25    13    14   ar
    26    16    17   ar
    27     1     7    2
    28     6     8    2
    29    26    27   ar
    30    28    29   ar
    31    19    20    1
    32     9    12    1
@<TRIPOS>MOLECULE
MolPort-007-686-748 ChemDiv-D039-3202 MCULE-5150081229 PubChem-23605094 ZINC000006809961 ZINC06809961
 30 32 0 0 0
SMALL
GASTEIGER

@<TRIPOS>ATOM
      1 C          11.6992   40.8093    8.6784 C.2     1  UNL1        0.3088
      2 C          12.5184   39.1331   10.3595 C.3     1  UNL1        0.1165
      3 C          13.6060   39.2741   11.4196 C.3     1  UNL1        0.1154
      4 C          15.1757   40.1913    9.7125 C.3     1  UNL1        0.1154
      5 C          14.0986   40.0640    8.6394 C.3     1  UNL1        0.1165
      6 C          15.8876   38.2445   11.1894 C.2     1  UNL1        0.2839
      7 O          11.9146   41.5408    7.6735 O.2     1  UNL1       -0.2522
      8 O          15.6031   37.4515   12.1284 O.2     1  UNL1       -0.2666
      9 N          10.3841   40.7245    9.2432 N.am    1  UNL1       -0.2552
     10 N          12.7760   40.0654    9.2632 N.am    1  UNL1       -0.2604
     11 N          14.9175   39.2264   10.7784 N.am    1  UNL1       -0.2701
     12 H          10.2645   40.1438   10.0291 H       1  UNL1        0.1578
     13 C           7.3335   42.5501    8.7068 C.ar    1  UNL1        0.0857
     14 C           7.7958   42.2900    7.4220 C.ar    1  UNL1        0.0408
     15 C           7.1350   42.6995    6.1508 C.3     1  UNL1        0.0500
     16 C           9.2308   41.4186    8.7536 C.ar    1  UNL1        0.1085
     17 C           8.2654   41.9842    9.5578 C.ar    1  UNL1        0.0153
     18 C           8.2492   41.9744   11.0491 C.3     1  UNL1        0.0342
     19 N           8.9540   41.5993    7.4465 N.ar    1  UNL1       -0.3451
     20 H           9.4837   41.2929    6.6753 H       1  UNL1        0.1668
     21 C           6.1058   43.2766    9.0901 C.2     1  UNL1        0.3421
     22 O           5.9776   44.4976    8.8010 O.2     1  UNL1       -0.2449
     23 O           5.0871   42.6082    9.7726 O.3     1  UNL1       -0.4454
     24 C           3.0179   41.4708    9.3619 C.3     1  UNL1        0.0513
     25 C           3.7162   42.8107    9.4640 C.3     1  UNL1        0.2089
     26 C          17.2133   38.1279   10.5465 C.ar    1  UNL1        0.1987
     27 C          18.3187   38.8864   10.8747 C.ar    1  UNL1        0.0455
     28 C          19.3220   38.4427   10.0316 C.ar    1  UNL1        0.0440
     29 C          18.7656   37.4471    9.2481 C.ar    1  UNL1        0.1798
     30 O          17.5088   37.2896    9.5855 O.2     1  UNL1       -0.4458
@<TRIPOS>BOND
     1    24    25    1
     2    25    23    1
     3    21    23    1
     4    21    13    1
     5    14    19   ar
     6    15    14    1
     7    16     9    1
     8     1    10   am
     9     2    10    1
    10     2     3    1
    11     3    11    1
    12     4    11    1
    13     4     5    1
    14     5    10    1
    15     6    26    1
    16    26    30   ar
    17    27    28   ar
    18    29    30   ar
    19    17    13   ar
    20    18    17    1
    21    19    16   ar
    22     9     1   am
    23    11     6   am
    24    21    22    2
    25    13    14   ar
    26    16    17   ar
    27     1     7    2
    28     6     8    2
    29    26    27   ar
    30    28    29   ar
    31    19    20    1
    32     9    12    1
@<TRIPOS>MOLECULE
MolPort-007-686-748 ChemDiv-D039-3202 MCULE-5150081229 PubChem-23605094 ZINC000006809961 ZINC06809961
 30 32 0 0 0
SMALL
GASTEIGER

@<TRIPOS>ATOM
      1 C          13.3514   34.6602    9.5157 C.2     1  UNL1        0.3088
      2 C          15.6132   35.7481    9.4272 C.3     1  UNL1        0.1165
      3 C          16.2532   36.5665    8.3104 C.3     1  UNL1        0.1154
      4 C          15.6567   34.8023    6.6517 C.3     1  UNL1        0.1154
      5 C          15.0058   33.9722    7.7540 C.3     1  UNL1        0.1165
      6 C          18.0482   35.6606    6.8018 C.2     1  UNL1        0.2839
      7 O          12.5330   33.8080    9.0739 O.2     1  UNL1       -0.2522
      8 O          18.8715   36.4513    7.3388 O.2     1  UNL1       -0.2666
      9 N          13.0209   35.4537   10.6632 N.am    1  UNL1       -0.2552
     10 N          14.6145   34.8417    8.8628 N.am    1  UNL1       -0.2604
     11 N          16.6746   35.6730    7.2345 N.am    1  UNL1       -0.2701
     12 H          13.6893   36.1084   10.9698 H       1  UNL1        0.1578
     13 C          10.2884   34.7439   12.8895 C.ar    1  UNL1        0.0857
     14 C           9.7824   35.7240   12.0436 C.ar    1  UNL1        0.0408
     15 C           8.4126   36.3080   12.0961 C.3     1  UNL1        0.0500
     16 C          11.7947   35.3687   11.3985 C.ar    1  UNL1        0.1085
     17 C          11.5860   34.5219   12.4653 C.ar    1  UNL1        0.0153
     18 C          12.5780   33.5631   13.0319 C.3     1  UNL1        0.0342
     19 N          10.6991   36.1081   11.1320 N.ar    1  UNL1       -0.3451
     20 H          10.5915   36.7834   10.4238 H       1  UNL1        0.1668
     21 C           9.5924   34.0750   14.0076 C.2     1  UNL1        0.3421
     22 O          10.2574   33.5251   14.9275 O.2     1  UNL1       -0.2449
     23 O           8.1965   34.0537   14.0442 O.3     1  UNL1       -0.4454
     24 C           6.4517   32.9255   15.2386 C.3     1  UNL1        0.0513
     25 C           7.4763   34.0403   15.2675 C.3     1  UNL1        0.2089
     26 C          18.5344   34.7482    5.7456 C.ar    1  UNL1        0.1987
     27 C          18.7898   33.4033    5.9210 C.ar    1  UNL1        0.0455
     28 C          19.2183   32.9547    4.6843 C.ar    1  UNL1        0.0440
     29 C          19.1960   34.0501    3.8393 C.ar    1  UNL1        0.1798
     30 O          18.7830   35.0985    4.5091 O.2     1  UNL1       -0.4458
@<TRIPOS>BOND
     1    24    25    1
     2    25    23    1
     3    21    23    1
     4    21    13    1
     5    14    19   ar
     6    15    14    1
     7    16     9    1
     8     1    10   am
     9     2    10    1
    10     2     3    1
    11     3    11    1
    12     4    11    1
    13     4     5    1
    14     5    10    1
    15     6    26    1
    16    26    30   ar
    17    27    28   ar
    18    29    30   ar
    19    17    13   ar
    20    18    17    1
    21    19    16   ar
    22     9     1   am
    23    11     6   am
    24    21    22    2
    25    13    14   ar
    26    16    17   ar
    27     1     7    2
    28     6     8    2
    29    26    27   ar
    30    28    29   ar
    31    19    20    1
    32     9    12    1
@<TRIPOS>MOLECULE
MolPort-007-686-748 ChemDiv-D039-3202 MCULE-5150081229 PubChem-23605094 ZINC000006809961 ZINC06809961
 30 32 0 0 0
SMALL
GASTEIGER

@<TRIPOS>ATOM
      1 C          10.7254   40.2727    8.4830 C.2     1  UNL1        0.3088
      2 C          11.9057   39.5569   10.5809 C.3     1  UNL1        0.1165
      3 C          13.3271   39.8581   11.0455 C.3     1  UNL1        0.1154
      4 C          14.2189   39.1689    8.8208 C.3     1  UNL1        0.1154
      5 C          12.8039   38.8685    8.3356 C.3     1  UNL1        0.1165
      6 C          15.1871   38.1698   10.9520 C.2     1  UNL1        0.2839
      7 O          10.6283   40.2534    7.2254 O.2     1  UNL1       -0.2522
      8 O          15.1877   38.1295   12.2130 O.2     1  UNL1       -0.2666
      9 N           9.7322   40.9373    9.2753 N.am    1  UNL1       -0.2552
     10 N          11.8379   39.6340    9.1226 N.am    1  UNL1       -0.2604
     11 N          14.2702   39.0507   10.2758 N.am    1  UNL1       -0.2701
     12 H           9.8515   40.9293   10.2525 H       1  UNL1        0.1578
     13 C           6.5708   42.5218    8.6259 C.ar    1  UNL1        0.0857
     14 C           7.2554   42.6394    7.4219 C.ar    1  UNL1        0.0408
     15 C           6.7443   43.2852    6.1802 C.3     1  UNL1        0.0500
     16 C           8.5801   41.6117    8.7564 C.ar    1  UNL1        0.1085
     17 C           7.4331   41.8579    9.4794 C.ar    1  UNL1        0.0153
     18 C           7.1919   41.4736   10.9002 C.3     1  UNL1        0.0342
     19 N           8.4826   42.0850    7.4977 N.ar    1  UNL1       -0.3451
     20 H           9.1615   42.0364    6.7865 H       1  UNL1        0.1668
     21 C           5.2085   43.0016    8.9357 C.2     1  UNL1        0.3421
     22 O           4.9814   44.2383    9.0347 O.2     1  UNL1       -0.2449
     23 O           4.1727   42.0829    9.1178 O.3     1  UNL1       -0.4454
     24 C           3.6002   41.9745   11.4425 C.3     1  UNL1        0.0513
     25 C           3.1216   42.3083   10.0451 C.3     1  UNL1        0.2089
     26 C          16.1336   37.3027   10.2194 C.ar    1  UNL1        0.1987
     27 C          15.8153   36.5506    9.1069 C.ar    1  UNL1        0.0455
     28 C          16.9904   35.9081    8.7595 C.ar    1  UNL1        0.0440
     29 C          17.9442   36.3086    9.6784 C.ar    1  UNL1        0.1798
     30 O          17.3945   37.1390   10.5309 O.2     1  UNL1       -0.4458
@<TRIPOS>BOND
     1    24    25    1
     2    25    23    1
     3    21    23    1
     4    21    13    1
     5    14    19   ar
     6    15    14    1
     7    16     9    1
     8     1    10   am
     9     2    10    1
    10     2     3    1
    11     3    11    1
    12     4    11    1
    13     4     5    1
    14     5    10    1
    15     6    26    1
    16    26    30   ar
    17    27    28   ar
    18    29    30   ar
    19    17    13   ar
    20    18    17    1
    21    19    16   ar
    22     9     1   am
    23    11     6   am
    24    21    22    2
    25    13    14   ar
    26    16    17   ar
    27     1     7    2
    28     6     8    2
    29    26    27   ar
    30    28    29   ar
    31    19    20    1
    32     9    12    1
@<TRIPOS>MOLECULE
MolPort-007-686-748 ChemDiv-D039-3202 MCULE-5150081229 PubChem-23605094 ZINC000006809961 ZINC06809961
 30 32 0 0 0
SMALL
GASTEIGER

@<TRIPOS>ATOM
      1 C          11.3169   42.3676    8.4937 C.2     1  UNL1        0.3088
      2 C           9.4862   41.0050    7.4454 C.3     1  UNL1        0.1165
      3 C           8.1581   41.4600    6.8489 C.3     1  UNL1        0.1154
      4 C           7.6863   42.8156    8.8884 C.3     1  UNL1        0.1154
      5 C           9.0140   42.3770    9.4990 C.3     1  UNL1        0.1165
      6 C           5.9546   41.1638    8.0219 C.2     1  UNL1        0.2839
      7 O          11.7159   43.1358    9.4113 O.2     1  UNL1       -0.2522
      8 O           5.6249   40.3167    7.1470 O.2     1  UNL1       -0.2666
      9 N          12.2339   41.8889    7.5009 N.am    1  UNL1       -0.2552
     10 N           9.9385   41.9779    8.4386 N.am    1  UNL1       -0.2604
     11 N           7.2373   41.8117    7.9269 N.am    1  UNL1       -0.2701
     12 H          11.8765   41.2946    6.8022 H       1  UNL1        0.1578
     13 C          15.7878   42.2398    7.9169 C.ar    1  UNL1        0.0857
     14 C          15.4945   43.0737    6.8442 C.ar    1  UNL1        0.0408
     15 C          16.4717   43.8997    6.0806 C.3     1  UNL1        0.0500
     16 C          13.6292   42.2076    7.4461 C.ar    1  UNL1        0.1085
     17 C          14.5789   41.6864    8.2977 C.ar    1  UNL1        0.0153
     18 C          14.3286   40.7189    9.4048 C.3     1  UNL1        0.0342
     19 N          14.1775   43.0567    6.5537 N.ar    1  UNL1       -0.3451
     20 H          13.7157   43.5569    5.8426 H       1  UNL1        0.1668
     21 C          17.1099   41.9926    8.5276 C.2     1  UNL1        0.3421
     22 O          17.8560   42.9624    8.8336 O.2     1  UNL1       -0.2449
     23 O          17.5314   40.6828    8.7661 O.3     1  UNL1       -0.4454
     24 C          18.5212   38.9419   10.0828 C.3     1  UNL1        0.0513
     25 C          17.5944   40.1395   10.0762 C.3     1  UNL1        0.2089
     26 C           5.0030   41.4541    9.1149 C.ar    1  UNL1        0.1987
     27 C           5.1848   41.0955   10.4351 C.ar    1  UNL1        0.0455
     28 C           4.0618   41.5653   11.0928 C.ar    1  UNL1        0.0440
     29 C           3.2723   42.1770   10.1352 C.ar    1  UNL1        0.1798
     30 O           3.8678   42.0897    8.9707 O.2     1  UNL1       -0.4458
@<TRIPOS>BOND
     1    24    25    1
     2    25    23    1
     3    21    23    1
     4    21    13    1
     5    14    19   ar
     6    15    14    1
     7    16     9    1
     8     1    10   am
     9     2    10    1
    10     2     3    1
    11     3    11    1
    12     4    11    1
    13     4     5    1
    14     5    10    1
    15     6    26    1
    16    26    30   ar
    17    27    28   ar
    18    29    30   ar
    19    17    13   ar
    20    18    17    1
    21    19    16   ar
    22     9     1   am
    23    11     6   am
    24    21    22    2
    25    13    14   ar
    26    16    17   ar
    27     1     7    2
    28     6     8    2
    29    26    27   ar
    30    28    29   ar
    31    19    20    1
    32     9    12    1
@<TRIPOS>MOLECULE
MolPort-007-686-748 ChemDiv-D039-3202 MCULE-5150081229 PubChem-23605094 ZINC000006809961 ZINC06809961
 30 32 0 0 0
SMALL
GASTEIGER

@<TRIPOS>ATOM
      1 C          14.7203   38.1771    9.8188 C.2     1  UNL1        0.3088
      2 C          12.8324   38.6804    8.2409 C.3     1  UNL1        0.1165
      3 C          12.3939   40.0151    7.6469 C.3     1  UNL1        0.1154
      4 C          12.4307   41.0557    9.9131 C.3     1  UNL1        0.1154
      5 C          12.8761   39.7309   10.5250 C.3     1  UNL1        0.1165
      6 C          10.3654   41.2695    8.4410 C.2     1  UNL1        0.2839
      7 O          15.2621   38.3132   10.9498 O.2     1  UNL1       -0.2522
      8 O           9.8060   41.0247    7.3371 O.2     1  UNL1       -0.2666
      9 N          15.2953   37.2993    8.8418 N.am    1  UNL1       -0.2552
     10 N          13.5285   38.9097    9.5059 N.am    1  UNL1       -0.2604
     11 N          11.7072   40.7992    8.6702 N.am    1  UNL1       -0.2701
     12 H          14.8397   37.2279    7.9720 H       1  UNL1        0.1578
     13 C          17.9817   34.9098    8.8259 C.ar    1  UNL1        0.0857
     14 C          18.3818   35.8539    9.7644 C.ar    1  UNL1        0.0408
     15 C          19.6462   35.8284   10.5523 C.3     1  UNL1        0.0500
     16 C          16.4806   36.5181    9.0321 C.ar    1  UNL1        0.1085
     17 C          16.7551   35.3470    8.3599 C.ar    1  UNL1        0.0153
     18 C          15.8854   34.6977    7.3369 C.3     1  UNL1        0.0342
     19 N          17.4679   36.8375    9.8930 N.ar    1  UNL1       -0.3451
     20 H          17.5122   37.6206   10.4879 H       1  UNL1        0.1668
     21 C          18.7081   33.6928    8.4096 C.2     1  UNL1        0.3421
     22 O          18.5691   32.6206    9.0592 O.2     1  UNL1       -0.2449
     23 O          19.5482   33.7320    7.2948 O.3     1  UNL1       -0.4454
     24 C          18.8593   34.3096    5.0731 C.3     1  UNL1        0.0513
     25 C          19.1621   33.1861    6.0424 C.3     1  UNL1        0.2089
     26 C           9.6120   42.0321    9.4585 C.ar    1  UNL1        0.1987
     27 C           9.6664   43.4019    9.6181 C.ar    1  UNL1        0.0455
     28 C           8.8126   43.6749   10.6719 C.ar    1  UNL1        0.0440
     29 C           8.2954   42.4595   11.0841 C.ar    1  UNL1        0.1798
     30 O           8.7959   41.5062   10.3365 O.2     1  UNL1       -0.4458
@<TRIPOS>BOND
     1    24    25    1
     2    25    23    1
     3    21    23    1
     4    21    13    1
     5    14    19   ar
     6    15    14    1
     7    16     9    1
     8     1    10   am
     9     2    10    1
    10     2     3    1
    11     3    11    1
    12     4    11    1
    13     4     5    1
    14     5    10    1
    15     6    26    1
    16    26    30   ar
    17    27    28   ar
    18    29    30   ar
    19    17    13   ar
    20    18    17    1
    21    19    16   ar
    22     9     1   am
    23    11     6   am
    24    21    22    2
    25    13    14   ar
    26    16    17   ar
    27     1     7    2
    28     6     8    2
    29    26    27   ar
    30    28    29   ar
    31    19    20    1
    32     9    12    1
@<TRIPOS>MOLECULE
MolPort-007-686-748 ChemDiv-D039-3202 MCULE-5150081229 PubChem-23605094 ZINC000006809961 ZINC06809961
 30 32 0 0 0
SMALL
GASTEIGER

@<TRIPOS>ATOM
      1 C           9.5787   41.6035    9.6677 C.2     1  UNL1        0.3088
      2 C          10.9823   42.5160    7.7958 C.3     1  UNL1        0.1165
      3 C          12.0074   41.8066    6.9169 C.3     1  UNL1        0.1154
      4 C          13.1055   40.8486    8.9407 C.3     1  UNL1        0.1154
      5 C          12.0851   41.5448    9.8361 C.3     1  UNL1        0.1165
      6 C          14.4888   42.0902    7.2020 C.2     1  UNL1        0.2839
      7 O           9.4938   41.0856   10.8149 O.2     1  UNL1       -0.2522
      8 O          14.5260   42.7011    6.0989 O.2     1  UNL1       -0.2666
      9 N           8.3930   41.9690    8.9493 N.am    1  UNL1       -0.2552
     10 N          10.8663   41.8201    9.0763 N.am    1  UNL1       -0.2604
     11 N          13.2303   41.5814    7.6833 N.am    1  UNL1       -0.2701
     12 H           8.5082   42.3666    8.0561 H       1  UNL1        0.1578
     13 C           4.8472   41.8450    9.5312 C.ar    1  UNL1        0.0857
     14 C           5.3928   41.2887   10.6822 C.ar    1  UNL1        0.0408
     15 C           4.6317   40.7756   11.8559 C.3     1  UNL1        0.0500
     16 C           7.0540   41.8012    9.4293 C.ar    1  UNL1        0.1085
     17 C           5.9261   42.1722    8.7301 C.ar    1  UNL1        0.0153
     18 C           5.8990   42.8016    7.3782 C.3     1  UNL1        0.0342
     19 N           6.7400   41.2602   10.6237 N.ar    1  UNL1       -0.3451
     20 H           7.3609   40.9177   11.3067 H       1  UNL1        0.1668
     21 C           3.4170   42.0482    9.2221 C.2     1  UNL1        0.3421
     22 O           2.5814   41.1362    9.4690 O.2     1  UNL1       -0.2449
     23 O           2.9923   43.2524    8.6568 O.3     1  UNL1       -0.4454
     24 C           3.3757   45.3852    7.6330 C.3     1  UNL1        0.0513
     25 C           3.7626   44.4411    8.7521 C.3     1  UNL1        0.2089
     26 C          15.7479   41.9244    7.9581 C.ar    1  UNL1        0.1987
     27 C          15.9762   40.9475    8.9058 C.ar    1  UNL1        0.0455
     28 C          17.2695   41.1685    9.3451 C.ar    1  UNL1        0.0440
     29 C          17.7432   42.2606    8.6397 C.ar    1  UNL1        0.1798
     30 O          16.8073   42.6815    7.8241 O.2     1  UNL1       -0.4458
@<TRIPOS>BOND
     1    24    25    1
     2    25    23    1
     3    21    23    1
     4    21    13    1
     5    14    19   ar
     6    15    14    1
     7    16     9    1
     8     1    10   am
     9     2    10    1
    10     2     3    1
    11     3    11    1
    12     4    11    1
    13     4     5    1
    14     5    10    1
    15     6    26    1
    16    26    30   ar
    17    27    28   ar
    18    29    30   ar
    19    17    13   ar
    20    18    17    1
    21    19    16   ar
    22     9     1   am
    23    11     6   am
    24    21    22    2
    25    13    14   ar
    26    16    17   ar
    27     1     7    2
    28     6     8    2
    29    26    27   ar
    30    28    29   ar
    31    19    20    1
    32     9    12    1
