@<TRIPOS>MOLECULE
MolPort-023-256-740 77378919 CSSS00160048253 MCULE-7439721206 PubChem-136239114 ZINC000077378919 ZINC77378919
 29 31 0 0 0
SMALL
GASTEIGER

@<TRIPOS>ATOM
      1 C          14.6369   39.1956   10.7464 C.ar    1  UNL1        0.1022
      2 C          16.0043   39.2272   10.5493 C.ar    1  UNL1        0.1195
      3 C          15.0885   40.5153    9.1059 C.ar    1  UNL1        0.1478
      4 N          14.0678   40.0045    9.8340 N.ar    1  UNL1       -0.2889
      5 N          16.2840   40.0523    9.5199 N.ar    1  UNL1       -0.2248
      6 C          14.9723   41.5389    8.0470 C.ar    1  UNL1        0.0377
      7 C          16.0210   42.4449    7.8433 C.ar    1  UNL1        0.0430
      8 C          15.9195   43.4562    6.8736 C.ar    1  UNL1        0.1722
      9 C          14.7464   43.5627    6.1138 C.ar    1  UNL1        0.1677
     10 C          13.6888   42.6751    6.3274 C.ar    1  UNL1        0.0399
     11 C          13.7987   41.6728    7.2936 C.ar    1  UNL1        0.0063
     12 O          14.6250   44.5531    5.1472 O.3     1  UNL1       -0.5029
     13 H          13.8389   44.6205    4.6417 H       1  UNL1        0.2923
     14 C          18.2322   44.2378    7.2833 C.3     1  UNL1        0.2526
     15 O          16.9644   44.3599    6.6531 O.3     1  UNL1       -0.4684
     16 C           9.8923   40.4711    9.1732 C.ar    1  UNL1        0.0464
     17 C          10.5804   39.3623    8.6316 C.ar    1  UNL1       -0.0069
     18 C           9.8796   38.2860    7.8751 C.3     1  UNL1        0.0324
     19 C          11.9514   39.2166    8.8633 C.ar    1  UNL1        0.0145
     20 C          12.6500   40.1452    9.6459 C.ar    1  UNL1        0.0652
     21 C          11.9594   41.2358   10.1898 C.ar    1  UNL1        0.0188
     22 C          10.5901   41.3887    9.9644 C.ar    1  UNL1        0.0158
     23 C           7.8966   41.4405    7.9364 C.2     1  UNL1        0.2563
     24 O           8.6018   42.2072    7.2270 O.2     1  UNL1       -0.2720
     25 N           8.4846   40.6690    8.9880 N.am    1  UNL1       -0.2821
     26 H           7.8763   40.2416    9.6334 H       1  UNL1        0.1549
     27 C           6.4264   41.3756    7.7169 C.3     1  UNL1        0.2273
     28 C           6.4616   39.6857    6.2999 C.3     1  UNL1        0.1748
     29 O           6.1613   41.0441    6.3883 O.3     1  UNL1       -0.3417
@<TRIPOS>BOND
     1    28    29    1
     2    27    29    1
     3    27    23    1
     4    23    25   am
     5    17    19   ar
     6    18    17    1
     7    20    21   ar
     8    20     4    1
     9    22    16   ar
    10     2     5   ar
    11     3     6    1
    12     3     4   ar
    13     7     8   ar
    14     8    15    1
    15    14    15    1
    16     9    12    1
    17     9    10   ar
    18    11     6   ar
    19    25    16    1
    20     4     1   ar
    21    23    24    2
    22    16    17   ar
    23    19    20   ar
    24    21    22   ar
    25     1     2   ar
    26     3     5   ar
    27     6     7   ar
    28     8     9   ar
    29    10    11   ar
    30    12    13    1
    31    25    26    1
@<TRIPOS>MOLECULE
MolPort-023-256-740 77378919 CSSS00160048253 MCULE-7439721206 PubChem-136239114 ZINC000077378919 ZINC77378919
 29 31 0 0 0
SMALL
GASTEIGER

@<TRIPOS>ATOM
      1 C          14.0282   39.2147   10.7932 C.ar    1  UNL1        0.1022
      2 C          15.3506   39.0486   10.4283 C.ar    1  UNL1        0.1195
      3 C          14.4408   40.4112    9.0511 C.ar    1  UNL1        0.1478
      4 N          13.4619   40.0694    9.9217 N.ar    1  UNL1       -0.2889
      5 N          15.6055   39.7970    9.3357 N.ar    1  UNL1       -0.2248
      6 C          14.3297   41.4106    7.9688 C.ar    1  UNL1        0.0377
      7 C          15.3102   42.4029    7.8410 C.ar    1  UNL1        0.0430
      8 C          15.2071   43.3922    6.8491 C.ar    1  UNL1        0.1722
      9 C          14.1002   43.3886    5.9891 C.ar    1  UNL1        0.1677
     10 C          13.1084   42.4139    6.1257 C.ar    1  UNL1        0.0399
     11 C          13.2194   41.4343    7.1148 C.ar    1  UNL1        0.0063
     12 O          13.9788   44.3553    4.9989 O.3     1  UNL1       -0.5029
     13 H          13.2371   44.3490    4.4263 H       1  UNL1        0.2923
     14 C          17.4234   44.1481    6.0468 C.3     1  UNL1        0.2526
     15 O          16.1854   44.3816    6.7042 O.3     1  UNL1       -0.4684
     16 C           9.3003   40.9463    9.9045 C.ar    1  UNL1        0.0464
     17 C          10.0468   41.0546   11.0991 C.ar    1  UNL1       -0.0069
     18 C           9.4409   41.5380   12.3723 C.3     1  UNL1        0.0324
     19 C          11.4158   40.7713   11.0891 C.ar    1  UNL1        0.0145
     20 C          12.0641   40.4023    9.9031 C.ar    1  UNL1        0.0652
     21 C          11.3203   40.3084    8.7198 C.ar    1  UNL1        0.0188
     22 C           9.9530   40.5904    8.7203 C.ar    1  UNL1        0.0158
     23 C           7.3380   42.4703    9.3760 C.2     1  UNL1        0.2563
     24 O           8.0641   43.4861    9.2053 O.2     1  UNL1       -0.2720
     25 N           7.8984   41.2398    9.8434 N.am    1  UNL1       -0.2821
     26 H           7.2739   40.5415   10.1461 H       1  UNL1        0.1549
     27 C           5.8714   42.5631    9.1424 C.3     1  UNL1        0.2273
     28 C           4.1536   43.8640    8.6719 C.3     1  UNL1        0.1748
     29 O           5.4877   43.9023    9.0746 O.3     1  UNL1       -0.3417
@<TRIPOS>BOND
     1    28    29    1
     2    27    29    1
     3    27    23    1
     4    23    25   am
     5    17    19   ar
     6    18    17    1
     7    20    21   ar
     8    20     4    1
     9    22    16   ar
    10     2     5   ar
    11     3     6    1
    12     3     4   ar
    13     7     8   ar
    14     8    15    1
    15    14    15    1
    16     9    12    1
    17     9    10   ar
    18    11     6   ar
    19    25    16    1
    20     4     1   ar
    21    23    24    2
    22    16    17   ar
    23    19    20   ar
    24    21    22   ar
    25     1     2   ar
    26     3     5   ar
    27     6     7   ar
    28     8     9   ar
    29    10    11   ar
    30    12    13    1
    31    25    26    1
@<TRIPOS>MOLECULE
MolPort-023-256-740 77378919 CSSS00160048253 MCULE-7439721206 PubChem-136239114 ZINC000077378919 ZINC77378919
 29 31 0 0 0
SMALL
GASTEIGER

@<TRIPOS>ATOM
      1 C          11.5901   37.7757   10.0264 C.ar    1  UNL1        0.1022
      2 C          11.4027   36.4660   10.4253 C.ar    1  UNL1        0.1195
      3 C          13.3910   36.6548    9.6557 C.ar    1  UNL1        0.1478
      4 N          12.8402   37.8863    9.5409 N.ar    1  UNL1       -0.2889
      5 N          12.5310   35.7658   10.1897 N.ar    1  UNL1       -0.2248
      6 C          14.7912   36.2981    9.3483 C.ar    1  UNL1        0.0377
      7 C          15.0607   35.1705    8.5621 C.ar    1  UNL1        0.0430
      8 C          16.3832   34.7825    8.2907 C.ar    1  UNL1        0.1722
      9 C          17.4411   35.5291    8.8276 C.ar    1  UNL1        0.1677
     10 C          17.1782   36.6423    9.6301 C.ar    1  UNL1        0.0399
     11 C          15.8602   37.0206    9.8945 C.ar    1  UNL1        0.0063
     12 O          18.7570   35.1658    8.5700 O.3     1  UNL1       -0.5029
     13 H          19.4609   35.6679    8.9311 H       1  UNL1        0.2923
     14 C          16.7612   32.3503    8.0283 C.3     1  UNL1        0.2526
     15 O          16.6651   33.6650    7.4976 O.3     1  UNL1       -0.4684
     16 C          14.3642   41.4544    7.7990 C.ar    1  UNL1        0.0464
     17 C          15.1095   40.7664    8.7825 C.ar    1  UNL1       -0.0069
     18 C          16.4700   41.2089    9.2009 C.3     1  UNL1        0.0324
     19 C          14.6006   39.5901    9.3410 C.ar    1  UNL1        0.0145
     20 C          13.3688   39.0705    8.9218 C.ar    1  UNL1        0.0652
     21 C          12.6405   39.7513    7.9378 C.ar    1  UNL1        0.0188
     22 C          13.1415   40.9260    7.3738 C.ar    1  UNL1        0.0158
     23 C          14.0688   43.4771    6.2911 C.2     1  UNL1        0.2563
     24 O          12.9807   43.0637    5.8081 O.2     1  UNL1       -0.2720
     25 N          14.8373   42.6549    7.1744 N.am    1  UNL1       -0.2821
     26 H          15.7611   42.9348    7.3679 H       1  UNL1        0.1549
     27 C          14.5912   44.8135    5.8974 C.3     1  UNL1        0.2273
     28 C          16.7508   44.6739    6.3237 C.3     1  UNL1        0.1748
     29 O          15.8317   44.6715    5.2756 O.3     1  UNL1       -0.3417
@<TRIPOS>BOND
     1    28    29    1
     2    27    29    1
     3    27    23    1
     4    23    25   am
     5    17    19   ar
     6    18    17    1
     7    20    21   ar
     8    20     4    1
     9    22    16   ar
    10     2     5   ar
    11     3     6    1
    12     3     4   ar
    13     7     8   ar
    14     8    15    1
    15    14    15    1
    16     9    12    1
    17     9    10   ar
    18    11     6   ar
    19    25    16    1
    20     4     1   ar
    21    23    24    2
    22    16    17   ar
    23    19    20   ar
    24    21    22   ar
    25     1     2   ar
    26     3     5   ar
    27     6     7   ar
    28     8     9   ar
    29    10    11   ar
    30    12    13    1
    31    25    26    1
@<TRIPOS>MOLECULE
MolPort-023-256-740 77378919 CSSS00160048253 MCULE-7439721206 PubChem-136239114 ZINC000077378919 ZINC77378919
 29 31 0 0 0
SMALL
GASTEIGER

@<TRIPOS>ATOM
      1 C          12.4876   37.5625    9.6843 C.ar    1  UNL1        0.1022
      2 C          11.4022   36.8047   10.0807 C.ar    1  UNL1        0.1195
      3 C          10.6966   38.3706    8.8033 C.ar    1  UNL1        0.1478
      4 N          12.0365   38.5464    8.8848 N.ar    1  UNL1       -0.2889
      5 N          10.2817   37.3145    9.5296 N.ar    1  UNL1       -0.2248
      6 C           9.7695   39.1457    7.9535 C.ar    1  UNL1        0.0377
      7 C           9.5316   38.7341    6.6359 C.ar    1  UNL1        0.0430
      8 C           8.6895   39.4765    5.7915 C.ar    1  UNL1        0.1722
      9 C           8.0944   40.6497    6.2754 C.ar    1  UNL1        0.1677
     10 C           8.3449   41.0765    7.5820 C.ar    1  UNL1        0.0399
     11 C           9.1835   40.3320    8.4143 C.ar    1  UNL1        0.0063
     12 O           7.2556   41.3983    5.4593 O.3     1  UNL1       -0.5029
     13 H           6.8599   42.1819    5.7871 H       1  UNL1        0.2923
     14 C           9.4687   38.8503    3.5270 C.3     1  UNL1        0.2526
     15 O           8.4352   39.0697    4.4774 O.3     1  UNL1       -0.4684
     16 C          14.4110   41.7628    7.4339 C.ar    1  UNL1        0.0464
     17 C          14.8700   40.9646    8.5055 C.ar    1  UNL1       -0.0069
     18 C          16.2119   41.1617    9.1237 C.3     1  UNL1        0.0324
     19 C          14.0832   39.9052    8.9674 C.ar    1  UNL1        0.0145
     20 C          12.8528   39.6093    8.3661 C.ar    1  UNL1        0.0652
     21 C          12.4092   40.3973    7.2963 C.ar    1  UNL1        0.0188
     22 C          13.1887   41.4565    6.8279 C.ar    1  UNL1        0.0158
     23 C          14.6254   44.0069    6.2634 C.2     1  UNL1        0.2563
     24 O          13.4163   44.0325    5.9087 O.2     1  UNL1       -0.2720
     25 N          15.1769   42.8516    6.9018 N.am    1  UNL1       -0.2821
     26 H          16.1568   42.8003    6.9818 H       1  UNL1        0.1549
     27 C          15.5068   45.1685    5.9670 C.3     1  UNL1        0.2273
     28 C          17.4655   44.3971    6.6251 C.3     1  UNL1        0.1748
     29 O          16.7347   44.7184    5.4823 O.3     1  UNL1       -0.3417
@<TRIPOS>BOND
     1    28    29    1
     2    27    29    1
     3    27    23    1
     4    23    25   am
     5    17    19   ar
     6    18    17    1
     7    20    21   ar
     8    20     4    1
     9    22    16   ar
    10     2     5   ar
    11     3     6    1
    12     3     4   ar
    13     7     8   ar
    14     8    15    1
    15    14    15    1
    16     9    12    1
    17     9    10   ar
    18    11     6   ar
    19    25    16    1
    20     4     1   ar
    21    23    24    2
    22    16    17   ar
    23    19    20   ar
    24    21    22   ar
    25     1     2   ar
    26     3     5   ar
    27     6     7   ar
    28     8     9   ar
    29    10    11   ar
    30    12    13    1
    31    25    26    1
@<TRIPOS>MOLECULE
MolPort-023-256-740 77378919 CSSS00160048253 MCULE-7439721206 PubChem-136239114 ZINC000077378919 ZINC77378919
 29 31 0 0 0
SMALL
GASTEIGER

@<TRIPOS>ATOM
      1 C          14.5972   44.2944    6.0428 C.ar    1  UNL1        0.1022
      2 C          15.8973   44.7178    6.2430 C.ar    1  UNL1        0.1195
      3 C          15.5623   42.9846    7.4534 C.ar    1  UNL1        0.1478
      4 N          14.3927   43.2072    6.8088 N.ar    1  UNL1       -0.2889
      5 N          16.4985   43.8973    7.1286 N.ar    1  UNL1       -0.2248
      6 C          15.8638   41.8366    8.3331 C.ar    1  UNL1        0.0377
      7 C          14.8247   40.9970    8.7544 C.ar    1  UNL1        0.0430
      8 C          15.0754   39.9245    9.6262 C.ar    1  UNL1        0.1722
      9 C          16.3810   39.7059   10.0871 C.ar    1  UNL1        0.1677
     10 C          17.4176   40.5530    9.6871 C.ar    1  UNL1        0.0399
     11 C          17.1589   41.6167    8.8200 C.ar    1  UNL1        0.0063
     12 O          16.6529   38.6496   10.9475 O.3     1  UNL1       -0.5029
     13 H          17.5272   38.5073   11.2530 H       1  UNL1        0.2923
     14 C          12.9019   39.5363   10.7453 C.3     1  UNL1        0.2526
     15 O          14.0481   39.0723   10.0452 O.3     1  UNL1       -0.4684
     16 C          10.6923   41.1752    7.3251 C.ar    1  UNL1        0.0464
     17 C          11.1462   42.0892    8.3022 C.ar    1  UNL1       -0.0069
     18 C          10.3356   42.4323    9.5051 C.3     1  UNL1        0.0324
     19 C          12.3605   42.7566    8.1162 C.ar    1  UNL1        0.0145
     20 C          13.1248   42.5480    6.9606 C.ar    1  UNL1        0.0652
     21 C          12.6631   41.6494    5.9903 C.ar    1  UNL1        0.0188
     22 C          11.4513   40.9793    6.1672 C.ar    1  UNL1        0.0158
     23 C           8.3325   40.6226    6.5646 C.2     1  UNL1        0.2563
     24 O           8.2832   41.5773    5.7434 O.2     1  UNL1       -0.2720
     25 N           9.4487   40.4725    7.4469 N.am    1  UNL1       -0.2821
     26 H           9.3557   39.8386    8.1943 H       1  UNL1        0.1549
     27 C           7.1935   39.6699    6.6590 C.3     1  UNL1        0.2273
     28 C           6.0151   40.8408    8.1100 C.3     1  UNL1        0.1748
     29 O           5.9979   40.3751    6.7961 O.3     1  UNL1       -0.3417
@<TRIPOS>BOND
     1    28    29    1
     2    27    29    1
     3    27    23    1
     4    23    25   am
     5    17    19   ar
     6    18    17    1
     7    20    21   ar
     8    20     4    1
     9    22    16   ar
    10     2     5   ar
    11     3     6    1
    12     3     4   ar
    13     7     8   ar
    14     8    15    1
    15    14    15    1
    16     9    12    1
    17     9    10   ar
    18    11     6   ar
    19    25    16    1
    20     4     1   ar
    21    23    24    2
    22    16    17   ar
    23    19    20   ar
    24    21    22   ar
    25     1     2   ar
    26     3     5   ar
    27     6     7   ar
    28     8     9   ar
    29    10    11   ar
    30    12    13    1
    31    25    26    1
@<TRIPOS>MOLECULE
MolPort-023-256-740 77378919 CSSS00160048253 MCULE-7439721206 PubChem-136239114 ZINC000077378919 ZINC77378919
 29 31 0 0 0
SMALL
GASTEIGER

@<TRIPOS>ATOM
      1 C          11.3908   39.7701    9.7011 C.ar    1  UNL1        0.1022
      2 C          10.5053   40.7991    9.4427 C.ar    1  UNL1        0.1195
      3 C          12.3704   41.2669    8.5026 C.ar    1  UNL1        0.1478
      4 N          12.5614   40.0723    9.1103 N.ar    1  UNL1       -0.2889
      5 N          11.1222   41.7361    8.6942 N.ar    1  UNL1       -0.2248
      6 C          13.3417   41.9646    7.6352 C.ar    1  UNL1        0.0377
      7 C          14.6642   42.1254    8.0680 C.ar    1  UNL1        0.0430
      8 C          15.5978   42.8229    7.2837 C.ar    1  UNL1        0.1722
      9 C          15.1908   43.3738    6.0607 C.ar    1  UNL1        0.1677
     10 C          13.8677   43.2348    5.6338 C.ar    1  UNL1        0.0399
     11 C          12.9465   42.5396    6.4203 C.ar    1  UNL1        0.0063
     12 O          16.0976   44.0650    5.2670 O.3     1  UNL1       -0.5029
     13 H          15.8211   44.4315    4.4502 H       1  UNL1        0.2923
     14 C          17.5980   42.0189    8.5002 C.3     1  UNL1        0.2526
     15 O          16.9240   42.9805    7.6999 O.3     1  UNL1       -0.4684
     16 C          16.0717   37.7238    9.6109 C.ar    1  UNL1        0.0464
     17 C          15.0007   37.2462    8.8228 C.ar    1  UNL1       -0.0069
     18 C          15.0731   35.9525    8.0860 C.3     1  UNL1        0.0324
     19 C          13.8558   38.0319    8.6598 C.ar    1  UNL1        0.0145
     20 C          13.7646   39.2992    9.2502 C.ar    1  UNL1        0.0652
     21 C          14.8350   39.7716   10.0205 C.ar    1  UNL1        0.0188
     22 C          15.9825   38.9943   10.1879 C.ar    1  UNL1        0.0158
     23 C          18.3510   37.3577   10.6706 C.2     1  UNL1        0.2563
     24 O          18.4068   38.5204   11.1537 O.2     1  UNL1       -0.2720
     25 N          17.2795   36.9758    9.8030 N.am    1  UNL1       -0.2821
     26 H          17.3792   36.1357    9.2996 H       1  UNL1        0.1549
     27 C          19.4393   36.3849   10.9594 C.3     1  UNL1        0.2273
     28 C          19.6521   34.2181   10.6063 C.3     1  UNL1        0.1748
     29 O          18.8900   35.1511   11.3078 O.3     1  UNL1       -0.3417
@<TRIPOS>BOND
     1    28    29    1
     2    27    29    1
     3    27    23    1
     4    23    25   am
     5    17    19   ar
     6    18    17    1
     7    20    21   ar
     8    20     4    1
     9    22    16   ar
    10     2     5   ar
    11     3     6    1
    12     3     4   ar
    13     7     8   ar
    14     8    15    1
    15    14    15    1
    16     9    12    1
    17     9    10   ar
    18    11     6   ar
    19    25    16    1
    20     4     1   ar
    21    23    24    2
    22    16    17   ar
    23    19    20   ar
    24    21    22   ar
    25     1     2   ar
    26     3     5   ar
    27     6     7   ar
    28     8     9   ar
    29    10    11   ar
    30    12    13    1
    31    25    26    1
@<TRIPOS>MOLECULE
MolPort-023-256-740 77378919 CSSS00160048253 MCULE-7439721206 PubChem-136239114 ZINC000077378919 ZINC77378919
 29 31 0 0 0
SMALL
GASTEIGER

@<TRIPOS>ATOM
      1 C          15.1842   38.2995   10.7359 C.ar    1  UNL1        0.1022
      2 C          16.5643   38.3195   10.6696 C.ar    1  UNL1        0.1195
      3 C          15.8134   39.9585    9.5158 C.ar    1  UNL1        0.1478
      4 N          14.7191   39.3299   10.0062 N.ar    1  UNL1       -0.2889
      5 N          16.9554   39.3578    9.9029 N.ar    1  UNL1       -0.2248
      6 C          15.8172   41.2132    8.7360 C.ar    1  UNL1        0.0377
      7 C          14.7316   41.5126    7.9029 C.ar    1  UNL1        0.0430
      8 C          14.7282   42.6766    7.1165 C.ar    1  UNL1        0.1722
      9 C          15.8335   43.5374    7.1606 C.ar    1  UNL1        0.1677
     10 C          16.9283   43.2330    7.9736 C.ar    1  UNL1        0.0399
     11 C          16.9228   42.0735    8.7520 C.ar    1  UNL1        0.0063
     12 O          15.8508   44.6958    6.3939 O.3     1  UNL1       -0.5029
     13 H          16.5918   45.2682    6.4265 H       1  UNL1        0.2923
     14 C          12.5336   42.1245    6.1135 C.3     1  UNL1        0.2526
     15 O          13.6451   42.9922    6.2892 O.3     1  UNL1       -0.4684
     16 C          10.5753   39.9565    9.2819 C.ar    1  UNL1        0.0464
     17 C          11.1781   40.4607   10.4560 C.ar    1  UNL1       -0.0069
     18 C          10.4234   41.2801   11.4464 C.3     1  UNL1        0.0324
     19 C          12.5430   40.2548   10.6778 C.ar    1  UNL1        0.0145
     20 C          13.3282   39.5729    9.7389 C.ar    1  UNL1        0.0652
     21 C          12.7266   39.0860    8.5714 C.ar    1  UNL1        0.0188
     22 C          11.3646   39.2879    8.3411 C.ar    1  UNL1        0.0158
     23 C           8.6640   41.1633    8.1230 C.2     1  UNL1        0.2563
     24 O           9.3880   42.1227    7.7439 O.2     1  UNL1       -0.2720
     25 N           9.1857   40.1488    8.9863 N.am    1  UNL1       -0.2821
     26 H           8.5416   39.5363    9.4095 H       1  UNL1        0.1549
     27 C           7.2341   41.1109    7.7148 C.3     1  UNL1        0.2273
     28 C           5.3104   41.1638    8.7924 C.3     1  UNL1        0.1748
     29 O           6.4695   41.9053    8.5691 O.3     1  UNL1       -0.3417
@<TRIPOS>BOND
     1    28    29    1
     2    27    29    1
     3    27    23    1
     4    23    25   am
     5    17    19   ar
     6    18    17    1
     7    20    21   ar
     8    20     4    1
     9    22    16   ar
    10     2     5   ar
    11     3     6    1
    12     3     4   ar
    13     7     8   ar
    14     8    15    1
    15    14    15    1
    16     9    12    1
    17     9    10   ar
    18    11     6   ar
    19    25    16    1
    20     4     1   ar
    21    23    24    2
    22    16    17   ar
    23    19    20   ar
    24    21    22   ar
    25     1     2   ar
    26     3     5   ar
    27     6     7   ar
    28     8     9   ar
    29    10    11   ar
    30    12    13    1
    31    25    26    1
@<TRIPOS>MOLECULE
MolPort-023-256-740 77378919 CSSS00160048253 MCULE-7439721206 PubChem-136239114 ZINC000077378919 ZINC77378919
 29 31 0 0 0
SMALL
GASTEIGER

@<TRIPOS>ATOM
      1 C          15.3386   43.3576    6.7961 C.ar    1  UNL1        0.1022
      2 C          16.6641   43.5618    7.1295 C.ar    1  UNL1        0.1195
      3 C          15.9113   41.9546    8.3259 C.ar    1  UNL1        0.1478
      4 N          14.8712   42.3487    7.5539 N.ar    1  UNL1       -0.2889
      5 N          17.0192   42.6836    8.0894 N.ar    1  UNL1       -0.2248
      6 C          15.9172   40.8043    9.2529 C.ar    1  UNL1        0.0377
      7 C          17.1375   40.2982    9.7187 C.ar    1  UNL1        0.0430
      8 C          17.1752   39.1782   10.5657 C.ar    1  UNL1        0.1722
      9 C          15.9743   38.5560   10.9340 C.ar    1  UNL1        0.1677
     10 C          14.7556   39.0435   10.4553 C.ar    1  UNL1        0.0399
     11 C          14.7279   40.1576    9.6137 C.ar    1  UNL1        0.0063
     12 O          15.9872   37.4489   11.7731 O.3     1  UNL1       -0.5029
     13 H          15.1819   37.0362   12.0166 H       1  UNL1        0.2923
     14 C          19.5501   38.5623   10.2376 C.3     1  UNL1        0.2526
     15 O          18.3868   38.6704   11.0465 O.3     1  UNL1       -0.4684
     16 C          10.7813   41.1826    7.5824 C.ar    1  UNL1        0.0464
     17 C          11.5450   41.0753    6.3987 C.ar    1  UNL1       -0.0069
     18 C          10.9868   40.4955    5.1441 C.3     1  UNL1        0.0324
     19 C          12.8907   41.4544    6.4052 C.ar    1  UNL1        0.0145
     20 C          13.5000   41.9194    7.5780 C.ar    1  UNL1        0.0652
     21 C          12.7401   42.0120    8.7511 C.ar    1  UNL1        0.0188
     22 C          11.3960   41.6347    8.7541 C.ar    1  UNL1        0.0158
     23 C           8.3004   41.6991    7.7580 C.2     1  UNL1        0.2563
     24 O           8.4874   42.9108    8.0501 O.2     1  UNL1       -0.2720
     25 N           9.4028   40.7941    7.6472 N.am    1  UNL1       -0.2821
     26 H           9.1994   39.8315    7.6127 H       1  UNL1        0.1549
     27 C           6.9146   41.1877    7.5798 C.3     1  UNL1        0.2273
     28 C           6.4535   39.5164    6.2164 C.3     1  UNL1        0.1748
     29 O           6.6900   40.8901    6.2358 O.3     1  UNL1       -0.3417
@<TRIPOS>BOND
     1    28    29    1
     2    27    29    1
     3    27    23    1
     4    23    25   am
     5    17    19   ar
     6    18    17    1
     7    20    21   ar
     8    20     4    1
     9    22    16   ar
    10     2     5   ar
    11     3     6    1
    12     3     4   ar
    13     7     8   ar
    14     8    15    1
    15    14    15    1
    16     9    12    1
    17     9    10   ar
    18    11     6   ar
    19    25    16    1
    20     4     1   ar
    21    23    24    2
    22    16    17   ar
    23    19    20   ar
    24    21    22   ar
    25     1     2   ar
    26     3     5   ar
    27     6     7   ar
    28     8     9   ar
    29    10    11   ar
    30    12    13    1
    31    25    26    1
@<TRIPOS>MOLECULE
MolPort-023-256-740 77378919 CSSS00160048253 MCULE-7439721206 PubChem-136239114 ZINC000077378919 ZINC77378919
 29 31 0 0 0
SMALL
GASTEIGER

@<TRIPOS>ATOM
      1 C          10.2177   41.1951   11.9713 C.ar    1  UNL1        0.1022
      2 C           8.9368   41.1949   12.4899 C.ar    1  UNL1        0.1195
      3 C           8.8071   41.5440   10.3822 C.ar    1  UNL1        0.1478
      4 N          10.1288   41.4183   10.6473 N.ar    1  UNL1       -0.2889
      5 N           8.0558   41.4161   11.4931 N.ar    1  UNL1       -0.2248
      6 C           8.2011   41.6969    9.0436 C.ar    1  UNL1        0.0377
      7 C           7.5122   42.8748    8.7271 C.ar    1  UNL1        0.0430
      8 C           6.8884   43.0296    7.4780 C.ar    1  UNL1        0.1722
      9 C           6.9483   41.9834    6.5471 C.ar    1  UNL1        0.1677
     10 C           7.6158   40.7979    6.8653 C.ar    1  UNL1        0.0399
     11 C           8.2331   40.6531    8.1096 C.ar    1  UNL1        0.0063
     12 O           6.3414   42.1154    5.3044 O.3     1  UNL1       -0.5029
     13 H           6.3840   41.4133    4.6853 H       1  UNL1        0.2923
     14 C           4.9612   44.5625    7.7284 C.3     1  UNL1        0.2526
     15 O           6.2072   44.2055    7.1460 O.3     1  UNL1       -0.4684
     16 C          13.5255   42.0241    8.1606 C.ar    1  UNL1        0.0464
     17 C          13.4881   40.9390    9.0646 C.ar    1  UNL1       -0.0069
     18 C          14.5849   39.9325    9.1419 C.3     1  UNL1        0.0324
     19 C          12.3620   40.7465    9.8704 C.ar    1  UNL1        0.0145
     20 C          11.2578   41.6040    9.7778 C.ar    1  UNL1        0.0652
     21 C          11.2967   42.6709    8.8710 C.ar    1  UNL1        0.0188
     22 C          12.4166   42.8701    8.0617 C.ar    1  UNL1        0.0158
     23 C          14.7859   43.4064    6.4422 C.2     1  UNL1        0.2563
     24 O          13.8096   44.1709    6.2169 O.2     1  UNL1       -0.2720
     25 N          14.6418   42.2664    7.2943 N.am    1  UNL1       -0.2821
     26 H          15.3641   41.5974    7.2852 H       1  UNL1        0.1549
     27 C          16.0906   43.6577    5.7724 C.3     1  UNL1        0.2273
     28 C          17.7846   44.0192    7.1378 C.3     1  UNL1        0.1748
     29 O          16.7744   44.6758    6.4367 O.3     1  UNL1       -0.3417
@<TRIPOS>BOND
     1    28    29    1
     2    27    29    1
     3    27    23    1
     4    23    25   am
     5    17    19   ar
     6    18    17    1
     7    20    21   ar
     8    20     4    1
     9    22    16   ar
    10     2     5   ar
    11     3     6    1
    12     3     4   ar
    13     7     8   ar
    14     8    15    1
    15    14    15    1
    16     9    12    1
    17     9    10   ar
    18    11     6   ar
    19    25    16    1
    20     4     1   ar
    21    23    24    2
    22    16    17   ar
    23    19    20   ar
    24    21    22   ar
    25     1     2   ar
    26     3     5   ar
    27     6     7   ar
    28     8     9   ar
    29    10    11   ar
    30    12    13    1
    31    25    26    1
@<TRIPOS>MOLECULE
MolPort-023-256-740 77378919 CSSS00160048253 MCULE-7439721206 PubChem-136239114 ZINC000077378919 ZINC77378919
 29 31 0 0 0
SMALL
GASTEIGER

@<TRIPOS>ATOM
      1 C          13.0932   42.8082    6.5835 C.ar    1  UNL1        0.1022
      2 C          14.4611   42.8432    6.3912 C.ar    1  UNL1        0.1195
      3 C          14.0555   41.6287    8.1064 C.ar    1  UNL1        0.1478
      4 N          12.8458   42.0462    7.6646 N.ar    1  UNL1       -0.2889
      5 N          15.0613   42.1058    7.3478 N.ar    1  UNL1       -0.2248
      6 C          14.2953   40.6805    9.2137 C.ar    1  UNL1        0.0377
      7 C          15.5122   39.9900    9.2812 C.ar    1  UNL1        0.0430
      8 C          15.7502   39.0501   10.2976 C.ar    1  UNL1        0.1722
      9 C          14.7485   38.7950   11.2443 C.ar    1  UNL1        0.1677
     10 C          13.5248   39.4652   11.1694 C.ar    1  UNL1        0.0399
     11 C          13.2971   40.3980   10.1553 C.ar    1  UNL1        0.0063
     12 O          14.9629   37.8718   12.2601 O.3     1  UNL1       -0.5029
     13 H          14.2903   37.7045   12.8907 H       1  UNL1        0.2923
     14 C          18.2095   39.0210   10.5776 C.3     1  UNL1        0.2526
     15 O          16.9656   38.3624   10.3821 O.3     1  UNL1       -0.4684
     16 C           9.0490   41.4568    9.4883 C.ar    1  UNL1        0.0464
     17 C           9.8558   42.5554    9.8602 C.ar    1  UNL1       -0.0069
     18 C           9.3973   43.5807   10.8402 C.3     1  UNL1        0.0324
     19 C          11.0983   42.7421    9.2470 C.ar    1  UNL1        0.0145
     20 C          11.5459   41.8653    8.2500 C.ar    1  UNL1        0.0652
     21 C          10.7358   40.7850    7.8776 C.ar    1  UNL1        0.0188
     22 C           9.4932   40.5914    8.4839 C.ar    1  UNL1        0.0158
     23 C           6.5304   41.7724    9.5830 C.2     1  UNL1        0.2563
     24 O           6.5320   42.7134    8.7446 O.2     1  UNL1       -0.2720
     25 N           7.7584   41.2192   10.0653 N.am    1  UNL1       -0.2821
     26 H           7.7137   40.6306   10.8532 H       1  UNL1        0.1549
     27 C           5.2393   41.2651   10.1213 C.3     1  UNL1        0.2273
     28 C           3.1160   41.3668    9.5329 C.3     1  UNL1        0.1748
     29 O           4.3707   40.9737    9.0696 O.3     1  UNL1       -0.3417
@<TRIPOS>BOND
     1    28    29    1
     2    27    29    1
     3    27    23    1
     4    23    25   am
     5    17    19   ar
     6    18    17    1
     7    20    21   ar
     8    20     4    1
     9    22    16   ar
    10     2     5   ar
    11     3     6    1
    12     3     4   ar
    13     7     8   ar
    14     8    15    1
    15    14    15    1
    16     9    12    1
    17     9    10   ar
    18    11     6   ar
    19    25    16    1
    20     4     1   ar
    21    23    24    2
    22    16    17   ar
    23    19    20   ar
    24    21    22   ar
    25     1     2   ar
    26     3     5   ar
    27     6     7   ar
    28     8     9   ar
    29    10    11   ar
    30    12    13    1
    31    25    26    1
