@<TRIPOS>MOLECULE
MolPort-006-579-633 ChemDiv-V012-7707 MCULE-4229415263 PubChem-46040595 ZINC000037544351 ZINC37544351
 28 30 0 0 0
SMALL
GASTEIGER

@<TRIPOS>ATOM
      1 C          12.3329   39.8392   10.6550 C.3     1  UNL1        0.1015
      2 C          13.7952   40.0096   10.2601 C.3     1  UNL1        0.0435
      3 C          13.8954   39.9902    8.7441 C.3     1  UNL1        0.0971
      4 C          11.8615   41.4570    8.7895 C.2     1  UNL1        0.3112
      5 O          11.1303   42.3196    8.2298 O.2     1  UNL1       -0.2520
      6 N          11.4816   40.8778   10.0605 N.am    1  UNL1       -0.2430
      7 N          13.1112   41.0828    8.1837 N.am    1  UNL1       -0.2596
      8 C           7.8461   41.6968   10.6212 C.ar    1  UNL1        0.0515
      9 C           7.8010   41.7223   12.0215 C.ar    1  UNL1        0.0148
     10 C           8.9553   41.4805   12.7687 C.ar    1  UNL1        0.0026
     11 C          10.1621   41.2109   12.1203 C.ar    1  UNL1        0.0150
     12 C          10.2320   41.1857   10.7177 C.ar    1  UNL1        0.0565
     13 C           9.0601   41.4282    9.9814 C.ar    1  UNL1        0.0296
     14 C           5.3490   41.4912   10.0803 C.2     1  UNL1        0.2256
     15 O           5.0985   40.7364   11.0599 O.2     1  UNL1       -0.2748
     16 N           6.6835   41.9448    9.8186 N.am    1  UNL1       -0.2839
     17 H           6.8155   42.4819    9.0041 H       1  UNL1        0.1549
     18 C           2.9384   41.2723    9.5695 C.3     1  UNL1        0.0096
     19 C           4.2487   41.9200    9.1661 C.3     1  UNL1        0.0768
     20 C           4.1033   43.4293    9.1813 C.3     1  UNL1        0.0096
     21 C          13.6070   41.7479    6.9849 C.3     1  UNL1        0.1217
     22 C          14.8928   42.4492    7.2712 C.ar    1  UNL1       -0.0021
     23 C          15.1630   43.6881    6.6780 C.ar    1  UNL1       -0.0003
     24 C          16.3729   44.3395    6.9367 C.ar    1  UNL1        0.0294
     25 C          17.3144   43.7530    7.7879 C.ar    1  UNL1        0.1401
     26 C          17.0476   42.5136    8.3783 C.ar    1  UNL1        0.0294
     27 C          15.8379   41.8616    8.1192 C.ar    1  UNL1       -0.0003
     28 F          18.4852   44.3864    8.0400 F       1  UNL1       -0.2042
@<TRIPOS>BOND
     1    18    19    1
     2    19    20    1
     3    19    14    1
     4    14    16   am
     5     9    10   ar
     6    11    12   ar
     7    12     6    1
     8    13     8   ar
     9     1     6    1
    10     1     2    1
    11     2     3    1
    12     3     7    1
    13     4     6   am
    14    21     7    1
    15    21    22    1
    16    23    24   ar
    17    25    26   ar
    18    25    28    1
    19    27    22   ar
    20    16     8    1
    21     7     4   am
    22    14    15    2
    23     8     9   ar
    24    10    11   ar
    25    12    13   ar
    26     4     5    2
    27    22    23   ar
    28    24    25   ar
    29    26    27   ar
    30    16    17    1
@<TRIPOS>MOLECULE
MolPort-006-579-633 ChemDiv-V012-7707 MCULE-4229415263 PubChem-46040595 ZINC000037544351 ZINC37544351
 28 30 0 0 0
SMALL
GASTEIGER

@<TRIPOS>ATOM
      1 C          11.2466   40.6039   10.3274 C.3     1  UNL1        0.1015
      2 C          10.1673   40.0958   11.2761 C.3     1  UNL1        0.0435
      3 C           9.5613   41.2834   12.0048 C.3     1  UNL1        0.0971
      4 C           9.6018   42.4216    9.7703 C.2     1  UNL1        0.3112
      5 O           9.1512   43.3073    8.9928 O.2     1  UNL1       -0.2520
      6 N          10.7176   41.5885    9.3747 N.am    1  UNL1       -0.2430
      7 N           8.9677   42.2023   11.0425 N.am    1  UNL1       -0.2596
      8 C          13.2896   42.6753    6.8439 C.ar    1  UNL1        0.0515
      9 C          12.8018   42.0422    5.6929 C.ar    1  UNL1        0.0148
     10 C          11.6370   41.2747    5.7504 C.ar    1  UNL1        0.0026
     11 C          10.9528   41.1348    6.9594 C.ar    1  UNL1        0.0150
     12 C          11.4204   41.7649    8.1245 C.ar    1  UNL1        0.0565
     13 C          12.5959   42.5310    8.0493 C.ar    1  UNL1        0.0296
     14 C          15.7703   43.1047    7.3258 C.2     1  UNL1        0.2256
     15 O          15.9466   42.0051    7.9191 O.2     1  UNL1       -0.2748
     16 N          14.4796   43.4760    6.8245 N.am    1  UNL1       -0.2839
     17 H          14.4020   44.3728    6.4258 H       1  UNL1        0.1549
     18 C          17.9557   43.8370    8.2246 C.3     1  UNL1        0.0096
     19 C          16.9140   44.0476    7.1431 C.3     1  UNL1        0.0768
     20 C          17.5446   43.8594    5.7770 C.3     1  UNL1        0.0096
     21 C           7.7510   42.9109   11.4203 C.3     1  UNL1        0.1217
     22 C           6.5478   42.1899   10.9109 C.ar    1  UNL1       -0.0021
     23 C           6.0322   42.4931    9.6452 C.ar    1  UNL1       -0.0003
     24 C           4.8976   41.8262    9.1728 C.ar    1  UNL1        0.0294
     25 C           4.2766   40.8560    9.9653 C.ar    1  UNL1        0.1401
     26 C           4.7883   40.5545   11.2315 C.ar    1  UNL1        0.0294
     27 C           5.9225   41.2219   11.7044 C.ar    1  UNL1       -0.0003
     28 F           3.1791   40.2084    9.5054 F       1  UNL1       -0.2042
@<TRIPOS>BOND
     1    18    19    1
     2    19    20    1
     3    19    14    1
     4    14    16   am
     5     9    10   ar
     6    11    12   ar
     7    12     6    1
     8    13     8   ar
     9     1     6    1
    10     1     2    1
    11     2     3    1
    12     3     7    1
    13     4     6   am
    14    21     7    1
    15    21    22    1
    16    23    24   ar
    17    25    26   ar
    18    25    28    1
    19    27    22   ar
    20    16     8    1
    21     7     4   am
    22    14    15    2
    23     8     9   ar
    24    10    11   ar
    25    12    13   ar
    26     4     5    2
    27    22    23   ar
    28    24    25   ar
    29    26    27   ar
    30    16    17    1
@<TRIPOS>MOLECULE
MolPort-006-579-633 ChemDiv-V012-7707 MCULE-4229415263 PubChem-46040595 ZINC000037544351 ZINC37544351
 28 30 0 0 0
SMALL
GASTEIGER

@<TRIPOS>ATOM
      1 C           9.1686   40.6460    5.5910 C.3     1  UNL1        0.1015
      2 C          10.2246   39.5474    5.6250 C.3     1  UNL1        0.0435
      3 C          11.5831   40.1852    5.8622 C.3     1  UNL1        0.0971
      4 C          10.4011   41.5976    7.5646 C.2     1  UNL1        0.3112
      5 O          10.4436   42.3090    8.6059 O.2     1  UNL1       -0.2520
      6 N           9.1658   41.4399    6.8266 N.am    1  UNL1       -0.2430
      7 N          11.5799   40.8944    7.1350 N.am    1  UNL1       -0.2596
      8 C           5.9280   42.3238    8.5402 C.ar    1  UNL1        0.0515
      9 C           5.6182   43.5304    7.8986 C.ar    1  UNL1        0.0148
     10 C           6.4618   44.0401    6.9097 C.ar    1  UNL1        0.0026
     11 C           7.6211   43.3466    6.5566 C.ar    1  UNL1        0.0150
     12 C           7.9486   42.1325    7.1825 C.ar    1  UNL1        0.0565
     13 C           7.0901   41.6358    8.1777 C.ar    1  UNL1        0.0296
     14 C           3.7007   42.0643    9.7820 C.2     1  UNL1        0.2256
     15 O           3.1065   42.9462    9.1027 O.2     1  UNL1       -0.2748
     16 N           5.0845   41.7653    9.5571 N.am    1  UNL1       -0.2839
     17 H           5.4987   41.1091   10.1631 H       1  UNL1        0.1549
     18 C           3.8685   40.2888   11.4966 C.3     1  UNL1        0.0096
     19 C           2.9648   41.3181   10.8459 C.3     1  UNL1        0.0768
     20 C           2.4344   42.2749   11.8959 C.3     1  UNL1        0.0096
     21 C          12.8032   40.9008    7.9278 C.3     1  UNL1        0.1217
     22 C          13.7581   41.9219    7.4055 C.ar    1  UNL1       -0.0021
     23 C          13.3267   42.8736    6.4739 C.ar    1  UNL1       -0.0003
     24 C          14.2243   43.8228    5.9754 C.ar    1  UNL1        0.0294
     25 C          15.5543   43.8212    6.4069 C.ar    1  UNL1        0.1401
     26 C          15.9877   42.8688    7.3347 C.ar    1  UNL1        0.0294
     27 C          15.0903   41.9190    7.8329 C.ar    1  UNL1       -0.0003
     28 F          16.4224   44.7432    5.9253 F       1  UNL1       -0.2042
@<TRIPOS>BOND
     1    18    19    1
     2    19    20    1
     3    19    14    1
     4    14    16   am
     5     9    10   ar
     6    11    12   ar
     7    12     6    1
     8    13     8   ar
     9     1     6    1
    10     1     2    1
    11     2     3    1
    12     3     7    1
    13     4     6   am
    14    21     7    1
    15    21    22    1
    16    23    24   ar
    17    25    26   ar
    18    25    28    1
    19    27    22   ar
    20    16     8    1
    21     7     4   am
    22    14    15    2
    23     8     9   ar
    24    10    11   ar
    25    12    13   ar
    26     4     5    2
    27    22    23   ar
    28    24    25   ar
    29    26    27   ar
    30    16    17    1
@<TRIPOS>MOLECULE
MolPort-006-579-633 ChemDiv-V012-7707 MCULE-4229415263 PubChem-46040595 ZINC000037544351 ZINC37544351
 28 30 0 0 0
SMALL
GASTEIGER

@<TRIPOS>ATOM
      1 C          11.4855   40.2853   10.9511 C.3     1  UNL1        0.1015
      2 C          10.2110   41.1015   11.1308 C.3     1  UNL1        0.0435
      3 C           9.8100   41.6808    9.7847 C.3     1  UNL1        0.0971
      4 C          10.3832   39.4193    8.8643 C.2     1  UNL1        0.3112
      5 O          10.2465   38.5447    7.9652 O.2     1  UNL1       -0.2520
      6 N          11.3172   39.2217    9.9523 N.am    1  UNL1       -0.2430
      7 N           9.5654   40.6022    8.8363 N.am    1  UNL1       -0.2596
      8 C          14.4199   37.0828    9.9578 C.ar    1  UNL1        0.0515
      9 C          13.8691   35.8310   10.2628 C.ar    1  UNL1        0.0148
     10 C          12.4931   35.6942   10.4559 C.ar    1  UNL1        0.0026
     11 C          11.6592   36.8086   10.3459 C.ar    1  UNL1        0.0150
     12 C          12.1887   38.0720   10.0355 C.ar    1  UNL1        0.0565
     13 C          13.5759   38.1922    9.8475 C.ar    1  UNL1        0.0296
     14 C          16.8429   37.3287   10.7572 C.2     1  UNL1        0.2256
     15 O          16.5451   37.2997   11.9830 O.2     1  UNL1       -0.2748
     16 N          15.8273   37.2631    9.7476 N.am    1  UNL1       -0.2839
     17 H          16.1266   37.3509    8.8138 H       1  UNL1        0.1549
     18 C          18.7793   38.8542   10.5487 C.3     1  UNL1        0.0096
     19 C          18.2717   37.4411   10.3372 C.3     1  UNL1        0.0768
     20 C          19.1321   36.4632   11.1136 C.3     1  UNL1        0.0096
     21 C           8.5074   40.7746    7.8483 C.3     1  UNL1        0.1217
     22 C           8.9979   40.4038    6.4885 C.ar    1  UNL1       -0.0021
     23 C          10.0891   41.0786    5.9285 C.ar    1  UNL1       -0.0003
     24 C          10.5411   40.7394    4.6495 C.ar    1  UNL1        0.0294
     25 C           9.9023   39.7260    3.9284 C.ar    1  UNL1        0.1401
     26 C           8.8097   39.0535    4.4849 C.ar    1  UNL1        0.0294
     27 C           8.3570   39.3930    5.7638 C.ar    1  UNL1       -0.0003
     28 F          10.3429   39.3963    2.6904 F       1  UNL1       -0.2042
@<TRIPOS>BOND
     1    18    19    1
     2    19    20    1
     3    19    14    1
     4    14    16   am
     5     9    10   ar
     6    11    12   ar
     7    12     6    1
     8    13     8   ar
     9     1     6    1
    10     1     2    1
    11     2     3    1
    12     3     7    1
    13     4     6   am
    14    21     7    1
    15    21    22    1
    16    23    24   ar
    17    25    26   ar
    18    25    28    1
    19    27    22   ar
    20    16     8    1
    21     7     4   am
    22    14    15    2
    23     8     9   ar
    24    10    11   ar
    25    12    13   ar
    26     4     5    2
    27    22    23   ar
    28    24    25   ar
    29    26    27   ar
    30    16    17    1
@<TRIPOS>MOLECULE
MolPort-006-579-633 ChemDiv-V012-7707 MCULE-4229415263 PubChem-46040595 ZINC000037544351 ZINC37544351
 28 30 0 0 0
SMALL
GASTEIGER

@<TRIPOS>ATOM
      1 C          10.4230   41.6948    7.6033 C.3     1  UNL1        0.1015
      2 C          11.3420   41.0003    6.6052 C.3     1  UNL1        0.0435
      3 C          12.7789   41.3801    6.9207 C.3     1  UNL1        0.0971
      4 C          12.1355   41.0296    9.3193 C.2     1  UNL1        0.3112
      5 O          12.4700   40.7729   10.5085 O.2     1  UNL1       -0.2520
      6 N          10.7630   41.3513    8.9902 N.am    1  UNL1       -0.2430
      7 N          13.1175   40.9514    8.2714 N.am    1  UNL1       -0.2596
      8 C           7.4079   41.9225   10.6082 C.ar    1  UNL1        0.0515
      9 C           7.7159   41.6409   11.9459 C.ar    1  UNL1        0.0148
     10 C           9.0136   41.2756   12.3088 C.ar    1  UNL1        0.0026
     11 C          10.0116   41.1889   11.3362 C.ar    1  UNL1        0.0150
     12 C           9.7269   41.4721    9.9901 C.ar    1  UNL1        0.0565
     13 C           8.4150   41.8352    9.6421 C.ar    1  UNL1        0.0296
     14 C           4.8585   41.6619   10.5541 C.2     1  UNL1        0.2256
     15 O           4.8534   40.6052   11.2438 O.2     1  UNL1       -0.2748
     16 N           6.0884   42.3057   10.1965 N.am    1  UNL1       -0.2839
     17 H           6.0203   43.0918    9.6077 H       1  UNL1        0.1549
     18 C           3.8293   43.4291    9.1621 C.3     1  UNL1        0.0096
     19 C           3.5703   42.2578   10.0895 C.3     1  UNL1        0.0768
     20 C           2.7281   41.2155    9.3799 C.3     1  UNL1        0.0096
     21 C          14.4742   40.4851    8.5309 C.3     1  UNL1        0.1217
     22 C          15.4640   41.5544    8.2088 C.ar    1  UNL1       -0.0021
     23 C          16.7078   41.5750    8.8509 C.ar    1  UNL1       -0.0003
     24 C          17.6306   42.5839    8.5580 C.ar    1  UNL1        0.0294
     25 C          17.3110   43.5738    7.6237 C.ar    1  UNL1        0.1401
     26 C          16.0674   43.5567    6.9841 C.ar    1  UNL1        0.0294
     27 C          15.1440   42.5482    7.2773 C.ar    1  UNL1       -0.0003
     28 F          18.2070   44.5492    7.3386 F       1  UNL1       -0.2042
@<TRIPOS>BOND
     1    18    19    1
     2    19    20    1
     3    19    14    1
     4    14    16   am
     5     9    10   ar
     6    11    12   ar
     7    12     6    1
     8    13     8   ar
     9     1     6    1
    10     1     2    1
    11     2     3    1
    12     3     7    1
    13     4     6   am
    14    21     7    1
    15    21    22    1
    16    23    24   ar
    17    25    26   ar
    18    25    28    1
    19    27    22   ar
    20    16     8    1
    21     7     4   am
    22    14    15    2
    23     8     9   ar
    24    10    11   ar
    25    12    13   ar
    26     4     5    2
    27    22    23   ar
    28    24    25   ar
    29    26    27   ar
    30    16    17    1
@<TRIPOS>MOLECULE
MolPort-006-579-633 ChemDiv-V012-7707 MCULE-4229415263 PubChem-46040595 ZINC000037544351 ZINC37544351
 28 30 0 0 0
SMALL
GASTEIGER

@<TRIPOS>ATOM
      1 C          11.7621   40.6823    6.1193 C.3     1  UNL1        0.1015
      2 C          10.3198   40.8362    5.6513 C.3     1  UNL1        0.0435
      3 C           9.4062   40.7839    6.8643 C.3     1  UNL1        0.0971
      4 C          11.1088   42.2625    7.9622 C.2     1  UNL1        0.3112
      5 O          11.4001   43.1169    8.8437 O.2     1  UNL1       -0.2520
      6 N          12.1321   41.7127    7.0984 N.am    1  UNL1       -0.2430
      7 N           9.7377   41.8686    7.7789 N.am    1  UNL1       -0.2596
      8 C          15.7024   41.7008    8.3042 C.ar    1  UNL1        0.0515
      9 C          16.2667   42.6551    7.4472 C.ar    1  UNL1        0.0148
     10 C          15.4782   43.2982    6.4912 C.ar    1  UNL1        0.0026
     11 C          14.1204   42.9905    6.3855 C.ar    1  UNL1        0.0150
     12 C          13.5323   42.0414    7.2377 C.ar    1  UNL1        0.0565
     13 C          14.3411   41.4016    8.1920 C.ar    1  UNL1        0.0296
     14 C          16.3708   39.6436    9.6794 C.2     1  UNL1        0.2256
     15 O          15.4846   38.8984    9.1778 O.2     1  UNL1       -0.2748
     16 N          16.4778   41.0224    9.3022 N.am    1  UNL1       -0.2839
     17 H          17.1531   41.5590    9.7769 H       1  UNL1        0.1549
     18 C          16.8091   37.7858   11.2532 C.3     1  UNL1        0.0096
     19 C          17.3247   39.0956   10.6894 C.3     1  UNL1        0.0768
     20 C          18.6926   38.8863   10.0693 C.3     1  UNL1        0.0096
     21 C           8.6558   42.5052    8.5200 C.3     1  UNL1        0.1217
     22 C           8.6451   42.0336    9.9359 C.ar    1  UNL1       -0.0021
     23 C           9.8275   41.5805   10.5329 C.ar    1  UNL1       -0.0003
     24 C           9.8151   41.1272   11.8556 C.ar    1  UNL1        0.0294
     25 C           8.6208   41.1256   12.5828 C.ar    1  UNL1        0.1401
     26 C           7.4381   41.5744   11.9865 C.ar    1  UNL1        0.0294
     27 C           7.4500   42.0271   10.6634 C.ar    1  UNL1       -0.0003
     28 F           8.6107   40.6889   13.8653 F       1  UNL1       -0.2042
@<TRIPOS>BOND
     1    18    19    1
     2    19    20    1
     3    19    14    1
     4    14    16   am
     5     9    10   ar
     6    11    12   ar
     7    12     6    1
     8    13     8   ar
     9     1     6    1
    10     1     2    1
    11     2     3    1
    12     3     7    1
    13     4     6   am
    14    21     7    1
    15    21    22    1
    16    23    24   ar
    17    25    26   ar
    18    25    28    1
    19    27    22   ar
    20    16     8    1
    21     7     4   am
    22    14    15    2
    23     8     9   ar
    24    10    11   ar
    25    12    13   ar
    26     4     5    2
    27    22    23   ar
    28    24    25   ar
    29    26    27   ar
    30    16    17    1
@<TRIPOS>MOLECULE
MolPort-006-579-633 ChemDiv-V012-7707 MCULE-4229415263 PubChem-46040595 ZINC000037544351 ZINC37544351
 28 30 0 0 0
SMALL
GASTEIGER

@<TRIPOS>ATOM
      1 C          10.2277   39.2926    8.3183 C.3     1  UNL1        0.1015
      2 C          11.2873   38.2984    8.7786 C.3     1  UNL1        0.0435
      3 C          12.6440   38.7677    8.2812 C.3     1  UNL1        0.0971
      4 C          11.8920   41.0526    8.9910 C.2     1  UNL1        0.3112
      5 O          12.1765   42.2279    9.3513 O.2     1  UNL1       -0.2520
      6 N          10.5152   40.6543    8.7877 N.am    1  UNL1       -0.2430
      7 N          12.9428   40.0837    8.8304 N.am    1  UNL1       -0.2596
      8 C           7.0339   42.0155    9.2659 C.ar    1  UNL1        0.0515
      9 C           7.2839   43.3925    9.1948 C.ar    1  UNL1        0.0148
     10 C           8.5811   43.8637    8.9844 C.ar    1  UNL1        0.0026
     11 C           9.6370   42.9608    8.8444 C.ar    1  UNL1        0.0150
     12 C           9.4089   41.5762    8.9065 C.ar    1  UNL1        0.0565
     13 C           8.0977   41.1195    9.1219 C.ar    1  UNL1        0.0296
     14 C           5.1226   41.1412   10.7332 C.2     1  UNL1        0.2256
     15 O           5.7846   41.2065   11.8054 O.2     1  UNL1       -0.2748
     16 N           5.7149   41.4923    9.4758 N.am    1  UNL1       -0.2839
     17 H           5.1592   41.3607    8.6739 H       1  UNL1        0.1549
     18 C           2.9931   41.2160   11.9900 C.3     1  UNL1        0.0096
     19 C           3.7009   40.6847   10.7587 C.3     1  UNL1        0.0768
     20 C           2.9736   41.1418    9.5092 C.3     1  UNL1        0.0096
     21 C          14.3259   40.3955    9.1696 C.3     1  UNL1        0.1217
     22 C          14.8665   41.4384    8.2492 C.ar    1  UNL1       -0.0021
     23 C          16.1474   41.9628    8.4589 C.ar    1  UNL1       -0.0003
     24 C          16.6493   42.9487    7.6038 C.ar    1  UNL1        0.0294
     25 C          15.8711   43.4122    6.5386 C.ar    1  UNL1        0.1401
     26 C          14.5898   42.8920    6.3300 C.ar    1  UNL1        0.0294
     27 C          14.0874   41.9065    7.1855 C.ar    1  UNL1       -0.0003
     28 F          16.3595   44.3655    5.7090 F       1  UNL1       -0.2042
@<TRIPOS>BOND
     1    18    19    1
     2    19    20    1
     3    19    14    1
     4    14    16   am
     5     9    10   ar
     6    11    12   ar
     7    12     6    1
     8    13     8   ar
     9     1     6    1
    10     1     2    1
    11     2     3    1
    12     3     7    1
    13     4     6   am
    14    21     7    1
    15    21    22    1
    16    23    24   ar
    17    25    26   ar
    18    25    28    1
    19    27    22   ar
    20    16     8    1
    21     7     4   am
    22    14    15    2
    23     8     9   ar
    24    10    11   ar
    25    12    13   ar
    26     4     5    2
    27    22    23   ar
    28    24    25   ar
    29    26    27   ar
    30    16    17    1
@<TRIPOS>MOLECULE
MolPort-006-579-633 ChemDiv-V012-7707 MCULE-4229415263 PubChem-46040595 ZINC000037544351 ZINC37544351
 28 30 0 0 0
SMALL
GASTEIGER

@<TRIPOS>ATOM
      1 C          10.8935   41.0529   10.5038 C.3     1  UNL1        0.1015
      2 C           9.4376   40.8736   10.0898 C.3     1  UNL1        0.0435
      3 C           9.1087   41.8936    9.0127 C.3     1  UNL1        0.0971
      4 C          11.3419   41.2934    8.0419 C.2     1  UNL1        0.3112
      5 O          12.1141   41.2340    7.0458 O.2     1  UNL1       -0.2520
      6 N          11.8068   40.9210    9.3612 N.am    1  UNL1       -0.2430
      7 N           9.9707   41.6858    7.8566 N.am    1  UNL1       -0.2596
      8 C          15.5700   40.7798    9.2201 C.ar    1  UNL1        0.0515
      9 C          15.8292   39.8255   10.2130 C.ar    1  UNL1        0.0148
     10 C          14.7768   39.2323   10.9127 C.ar    1  UNL1        0.0026
     11 C          13.4583   39.5900   10.6245 C.ar    1  UNL1        0.0150
     12 C          13.1747   40.5400    9.6295 C.ar    1  UNL1        0.0565
     13 C          14.2460   41.1294    8.9373 C.ar    1  UNL1        0.0296
     14 C          16.5149   42.5846    7.6644 C.2     1  UNL1        0.2256
     15 O          15.4009   43.1475    7.4794 O.2     1  UNL1       -0.2748
     16 N          16.6233   41.4080    8.4761 N.am    1  UNL1       -0.2839
     17 H          17.5121   40.9879    8.5284 H       1  UNL1        0.1549
     18 C          17.4142   43.7834    5.6961 C.3     1  UNL1        0.0096
     19 C          17.7471   43.1374    7.0269 C.3     1  UNL1        0.0768
     20 C          18.4086   44.1512    7.9402 C.3     1  UNL1        0.0096
     21 C           9.4181   41.9231    6.5286 C.3     1  UNL1        0.1217
     22 C           9.5679   40.7072    5.6763 C.ar    1  UNL1       -0.0021
     23 C           8.8649   39.5386    5.9921 C.ar    1  UNL1       -0.0003
     24 C           9.0145   38.3956    5.2007 C.ar    1  UNL1        0.0294
     25 C           9.8675   38.4193    4.0930 C.ar    1  UNL1        0.1401
     26 C          10.5734   39.5849    3.7783 C.ar    1  UNL1        0.0294
     27 C          10.4245   40.7279    4.5702 C.ar    1  UNL1       -0.0003
     28 F          10.0095   37.3121    3.3252 F       1  UNL1       -0.2042
@<TRIPOS>BOND
     1    18    19    1
     2    19    20    1
     3    19    14    1
     4    14    16   am
     5     9    10   ar
     6    11    12   ar
     7    12     6    1
     8    13     8   ar
     9     1     6    1
    10     1     2    1
    11     2     3    1
    12     3     7    1
    13     4     6   am
    14    21     7    1
    15    21    22    1
    16    23    24   ar
    17    25    26   ar
    18    25    28    1
    19    27    22   ar
    20    16     8    1
    21     7     4   am
    22    14    15    2
    23     8     9   ar
    24    10    11   ar
    25    12    13   ar
    26     4     5    2
    27    22    23   ar
    28    24    25   ar
    29    26    27   ar
    30    16    17    1
@<TRIPOS>MOLECULE
MolPort-006-579-633 ChemDiv-V012-7707 MCULE-4229415263 PubChem-46040595 ZINC000037544351 ZINC37544351
 28 30 0 0 0
SMALL
GASTEIGER

@<TRIPOS>ATOM
      1 C          17.3552   42.4948    8.6361 C.3     1  UNL1        0.1015
      2 C          16.8227   43.8794    8.2860 C.3     1  UNL1        0.0435
      3 C          16.1077   43.8018    6.9476 C.3     1  UNL1        0.0971
      4 C          15.1269   41.6648    7.8203 C.2     1  UNL1        0.3112
      5 O          14.2096   40.7989    7.7939 O.2     1  UNL1       -0.2520
      6 N          16.2845   41.4903    8.6718 N.am    1  UNL1       -0.2430
      7 N          14.9970   42.8628    7.0351 N.am    1  UNL1       -0.2596
      8 C          15.7254   38.1538   10.3323 C.ar    1  UNL1        0.0515
      9 C          16.9563   37.9784   10.9785 C.ar    1  UNL1        0.0148
     10 C          17.9526   38.9509   10.8737 C.ar    1  UNL1        0.0026
     11 C          17.7246   40.1048   10.1214 C.ar    1  UNL1        0.0150
     12 C          16.4963   40.3043    9.4698 C.ar    1  UNL1        0.0565
     13 C          15.5060   39.3141    9.5833 C.ar    1  UNL1        0.0296
     14 C          13.3250   37.4125   10.8409 C.2     1  UNL1        0.2256
     15 O          12.9583   38.5462   11.2562 O.2     1  UNL1       -0.2748
     16 N          14.6755   37.1805   10.4198 N.am    1  UNL1       -0.2839
     17 H          14.9061   36.2580   10.1645 H       1  UNL1        0.1549
     18 C          11.0553   36.7270   10.1348 C.3     1  UNL1        0.0096
     19 C          12.3490   36.2833   10.7896 C.3     1  UNL1        0.0768
     20 C          12.9345   35.1091   10.0296 C.3     1  UNL1        0.0096
     21 C          13.7834   43.1528    6.2813 C.3     1  UNL1        0.1217
     22 C          12.5837   42.6425    7.0076 C.ar    1  UNL1       -0.0021
     23 C          12.3127   43.0811    8.3091 C.ar    1  UNL1       -0.0003
     24 C          11.1954   42.5938    8.9941 C.ar    1  UNL1        0.0294
     25 C          10.3481   41.6669    8.3792 C.ar    1  UNL1        0.1401
     26 C          10.6195   41.2249    7.0804 C.ar    1  UNL1        0.0294
     27 C          11.7373   41.7116    6.3954 C.ar    1  UNL1       -0.0003
     28 F           9.2641   41.1976    9.0428 F       1  UNL1       -0.2042
@<TRIPOS>BOND
     1    18    19    1
     2    19    20    1
     3    19    14    1
     4    14    16   am
     5     9    10   ar
     6    11    12   ar
     7    12     6    1
     8    13     8   ar
     9     1     6    1
    10     1     2    1
    11     2     3    1
    12     3     7    1
    13     4     6   am
    14    21     7    1
    15    21    22    1
    16    23    24   ar
    17    25    26   ar
    18    25    28    1
    19    27    22   ar
    20    16     8    1
    21     7     4   am
    22    14    15    2
    23     8     9   ar
    24    10    11   ar
    25    12    13   ar
    26     4     5    2
    27    22    23   ar
    28    24    25   ar
    29    26    27   ar
    30    16    17    1
@<TRIPOS>MOLECULE
MolPort-006-579-633 ChemDiv-V012-7707 MCULE-4229415263 PubChem-46040595 ZINC000037544351 ZINC37544351
 28 30 0 0 0
SMALL
GASTEIGER

@<TRIPOS>ATOM
      1 C          11.2334   39.5280    6.1211 C.3     1  UNL1        0.1015
      2 C          10.3393   40.3498    5.2000 C.3     1  UNL1        0.0435
      3 C           9.0779   40.7290    5.9573 C.3     1  UNL1        0.0971
      4 C          10.6160   41.2176    7.8772 C.2     1  UNL1        0.3112
      5 O          10.8466   41.8265    8.9579 O.2     1  UNL1       -0.2520
      6 N          11.5616   40.2540    7.3549 N.am    1  UNL1       -0.2430
      7 N           9.4254   41.5215    7.1295 N.am    1  UNL1       -0.2596
      8 C          15.0507   40.3606    8.7746 C.ar    1  UNL1        0.0515
      9 C          15.0748   39.1555    9.4893 C.ar    1  UNL1        0.0148
     10 C          13.9584   38.3171    9.4956 C.ar    1  UNL1        0.0026
     11 C          12.8105   38.6787    8.7878 C.ar    1  UNL1        0.0150
     12 C          12.7659   39.8792    8.0599 C.ar    1  UNL1        0.0565
     13 C          13.8972   40.7126    8.0670 C.ar    1  UNL1        0.0296
     14 C          16.3595   42.3690    7.8669 C.2     1  UNL1        0.2256
     15 O          15.5185   42.6341    6.9644 O.2     1  UNL1       -0.2748
     16 N          16.1786   41.2462    8.7396 N.am    1  UNL1       -0.2839
     17 H          16.9030   41.0642    9.3809 H       1  UNL1        0.1549
     18 C          17.7720   44.1084    6.8183 C.3     1  UNL1        0.0096
     19 C          17.5714   43.2254    8.0347 C.3     1  UNL1        0.0768
     20 C          17.4476   44.0832    9.2790 C.3     1  UNL1        0.0096
     21 C           8.5212   42.5900    7.5366 C.3     1  UNL1        0.1217
     22 C           8.3409   42.5850    9.0180 C.ar    1  UNL1       -0.0021
     23 C           8.9256   43.5890    9.7990 C.ar    1  UNL1       -0.0003
     24 C           8.7668   43.5775   11.1882 C.ar    1  UNL1        0.0294
     25 C           8.0243   42.5620   11.7984 C.ar    1  UNL1        0.1401
     26 C           7.4427   41.5562   11.0200 C.ar    1  UNL1        0.0294
     27 C           7.6019   41.5671    9.6307 C.ar    1  UNL1       -0.0003
     28 F           7.8687   42.5536   13.1442 F       1  UNL1       -0.2042
@<TRIPOS>BOND
     1    18    19    1
     2    19    20    1
     3    19    14    1
     4    14    16   am
     5     9    10   ar
     6    11    12   ar
     7    12     6    1
     8    13     8   ar
     9     1     6    1
    10     1     2    1
    11     2     3    1
    12     3     7    1
    13     4     6   am
    14    21     7    1
    15    21    22    1
    16    23    24   ar
    17    25    26   ar
    18    25    28    1
    19    27    22   ar
    20    16     8    1
    21     7     4   am
    22    14    15    2
    23     8     9   ar
    24    10    11   ar
    25    12    13   ar
    26     4     5    2
    27    22    23   ar
    28    24    25   ar
    29    26    27   ar
    30    16    17    1
