@<TRIPOS>MOLECULE
MolPort-016-633-464 5592833 MCULE-8029622606 PubChem-6117359 ZINC000005592833
 28 30 0 0 0
SMALL
GASTEIGER

@<TRIPOS>ATOM
      1 C          15.6768   39.9242   10.0181 C.ar    1  UNL1        0.0864
      2 C          15.9783   40.9065    9.0721 C.ar    1  UNL1        0.0629
      3 C          17.3270   41.4883    8.8081 C.3     1  UNL1        0.0521
      4 C          13.8288   40.6818    9.0781 C.ar    1  UNL1        0.0708
      5 C          14.2980   39.7948    9.9765 C.ar    1  UNL1        0.0027
      6 C          13.3085   39.4427   11.0294 C.3     1  UNL1        0.0328
      7 C          12.0755   40.2972   10.6556 C.3     1  UNL1        0.0326
      8 C          12.4896   41.0955    9.4466 C.2     1  UNL1       -0.0047
      9 C          11.7959   42.0701    8.8497 C.2     1  UNL1       -0.0028
     10 N          14.8401   41.3684    8.5065 N.ar    1  UNL1       -0.2603
     11 C          13.9132   42.5799    6.5388 C.2     1  UNL1        0.3154
     12 O          13.3494   41.5450    6.0949 O.2     1  UNL1       -0.2513
     13 N          14.7489   42.5135    7.6963 N.am    1  UNL1       -0.2065
     14 N          13.7447   43.8193    5.8624 N.am    1  UNL1       -0.3120
     15 H          15.2840   43.3042    7.9367 H       1  UNL1        0.1773
     16 H          14.1834   44.6310    6.2057 H       1  UNL1        0.1465
     17 H          13.1893   43.8657    5.0509 H       1  UNL1        0.1465
     18 C          10.4486   42.5519    9.2079 C.ar    1  UNL1       -0.0003
     19 C           9.2756   42.0066    8.6633 C.ar    1  UNL1       -0.0000
     20 C           8.0237   42.5043    9.0367 C.ar    1  UNL1       -0.0000
     21 C           7.9353   43.5515    9.9572 C.ar    1  UNL1       -0.0000
     22 C           9.0985   44.1005   10.5031 C.ar    1  UNL1       -0.0000
     23 C          10.3497   43.6015   10.1285 C.ar    1  UNL1       -0.0000
     24 C          16.5898   39.2985   10.9908 C.2     1  UNL1        0.3421
     25 O          16.1273   38.8078   12.0569 O.2     1  UNL1       -0.2449
     26 O          17.9610   39.2376   10.7235 O.3     1  UNL1       -0.4454
     27 C          18.7377   36.9615   10.9432 C.3     1  UNL1        0.0513
     28 C          18.5598   38.1545   10.0219 C.3     1  UNL1        0.2089
@<TRIPOS>BOND
     1    27    28    1
     2    28    26    1
     3    24    26    1
     4    24     1    1
     5     2    10   ar
     6     3     2    1
     7    11    14   am
     8     5     1   ar
     9     6     5    1
    10     6     7    1
    11     7     8    1
    12     8     4    1
    13     9    18    1
    14    19    20   ar
    15    21    22   ar
    16    23    18   ar
    17    10    13    1
    18    10     4   ar
    19    13    11   am
    20    24    25    2
    21     1     2   ar
    22    11    12    2
    23     4     5   ar
    24     8     9    2
    25    18    19   ar
    26    20    21   ar
    27    22    23   ar
    28    13    15    1
    29    14    16    1
    30    14    17    1
@<TRIPOS>MOLECULE
MolPort-016-633-464 5592833 MCULE-8029622606 PubChem-6117359 ZINC000005592833
 28 30 0 0 0
SMALL
GASTEIGER

@<TRIPOS>ATOM
      1 C           7.1905   41.8360    9.3072 C.ar    1  UNL1        0.0864
      2 C           7.6417   41.9113   10.6267 C.ar    1  UNL1        0.0629
      3 C           6.8763   42.4524   11.7880 C.3     1  UNL1        0.0521
      4 C           9.3100   41.2321    9.4324 C.ar    1  UNL1        0.0708
      5 C           8.2775   41.3785    8.5801 C.ar    1  UNL1        0.0027
      6 C           8.7025   41.6312    7.1774 C.3     1  UNL1        0.0328
      7 C          10.2455   41.6397    7.2717 C.3     1  UNL1        0.0326
      8 C          10.5616   41.4357    8.7307 C.2     1  UNL1       -0.0047
      9 C          11.7644   41.5030    9.3105 C.2     1  UNL1       -0.0028
     10 N           8.9419   41.5456   10.6923 N.ar    1  UNL1       -0.2603
     11 C           9.4992   41.1493   13.0863 C.2     1  UNL1        0.3154
     12 O           8.3942   40.5881   13.3100 O.2     1  UNL1       -0.2513
     13 N           9.7760   41.7279   11.8091 N.am    1  UNL1       -0.2065
     14 N          10.4671   41.2387   14.1242 N.am    1  UNL1       -0.3120
     15 H          10.5860   42.2780   11.7070 H       1  UNL1        0.1773
     16 H          11.3323   41.6765   13.9540 H       1  UNL1        0.1465
     17 H          10.2720   40.8629   15.0129 H       1  UNL1        0.1465
     18 C          13.0601   41.7432    8.6478 C.ar    1  UNL1       -0.0003
     19 C          14.2340   41.0601    9.0017 C.ar    1  UNL1       -0.0000
     20 C          15.4364   41.3298    8.3415 C.ar    1  UNL1       -0.0000
     21 C          15.4741   42.2851    7.3227 C.ar    1  UNL1       -0.0000
     22 C          14.3099   42.9702    6.9654 C.ar    1  UNL1       -0.0000
     23 C          13.1083   42.6992    7.6267 C.ar    1  UNL1       -0.0000
     24 C           5.9094   42.3197    8.7631 C.2     1  UNL1        0.3421
     25 O           5.0584   41.4919    8.3367 O.2     1  UNL1       -0.2449
     26 O           5.6353   43.6907    8.7342 O.3     1  UNL1       -0.4454
     27 C           3.6481   44.8182    7.9519 C.3     1  UNL1        0.0513
     28 C           5.0449   44.3326    7.6102 C.3     1  UNL1        0.2089
@<TRIPOS>BOND
     1    27    28    1
     2    28    26    1
     3    24    26    1
     4    24     1    1
     5     2    10   ar
     6     3     2    1
     7    11    14   am
     8     5     1   ar
     9     6     5    1
    10     6     7    1
    11     7     8    1
    12     8     4    1
    13     9    18    1
    14    19    20   ar
    15    21    22   ar
    16    23    18   ar
    17    10    13    1
    18    10     4   ar
    19    13    11   am
    20    24    25    2
    21     1     2   ar
    22    11    12    2
    23     4     5   ar
    24     8     9    2
    25    18    19   ar
    26    20    21   ar
    27    22    23   ar
    28    13    15    1
    29    14    16    1
    30    14    17    1
@<TRIPOS>MOLECULE
MolPort-016-633-464 5592833 MCULE-8029622606 PubChem-6117359 ZINC000005592833
 28 30 0 0 0
SMALL
GASTEIGER

@<TRIPOS>ATOM
      1 C          10.1602   41.0348    6.5580 C.ar    1  UNL1        0.0864
      2 C          10.6171   41.7284    7.6808 C.ar    1  UNL1        0.0629
      3 C          12.0274   41.7842    8.1659 C.3     1  UNL1        0.0521
      4 C           8.4622   41.8924    7.6777 C.ar    1  UNL1        0.0708
      5 C           8.7827   41.1812    6.5798 C.ar    1  UNL1        0.0027
      6 C           7.6886   40.2864    6.1170 C.3     1  UNL1        0.0328
      7 C           6.5664   40.5365    7.1506 C.3     1  UNL1        0.0326
      8 C           7.1395   41.5197    8.1380 C.2     1  UNL1       -0.0047
      9 C           6.5804   41.9309    9.2808 C.2     1  UNL1       -0.0028
     10 N           9.5699   42.2446    8.3631 N.ar    1  UNL1       -0.2603
     11 C           9.0013   44.0202   10.0131 C.2     1  UNL1        0.3154
     12 O           8.4866   44.7560    9.1301 O.2     1  UNL1       -0.2513
     13 N           9.6405   42.7930    9.6556 N.am    1  UNL1       -0.2065
     14 N           8.9770   44.4306   11.3744 N.am    1  UNL1       -0.3120
     15 H          10.1524   42.3106   10.3444 H       1  UNL1        0.1773
     16 H           9.3781   43.8588   12.0681 H       1  UNL1        0.1465
     17 H           8.5590   45.2866   11.6230 H       1  UNL1        0.1465
     18 C           5.2564   41.5540    9.8104 C.ar    1  UNL1       -0.0003
     19 C           4.0566   41.8664    9.1526 C.ar    1  UNL1       -0.0000
     20 C           2.8283   41.4867    9.7018 C.ar    1  UNL1       -0.0000
     21 C           2.7906   40.7922   10.9135 C.ar    1  UNL1       -0.0000
     22 C           3.9807   40.4785   11.5751 C.ar    1  UNL1       -0.0000
     23 C           5.2081   40.8590   11.0243 C.ar    1  UNL1       -0.0000
     24 C          10.9384   40.1698    5.6539 C.2     1  UNL1        0.3421
     25 O          11.7231   39.3072    6.1352 O.2     1  UNL1       -0.2449
     26 O          10.7946   40.2972    4.2688 O.3     1  UNL1       -0.4454
     27 C          10.3021   38.0826    3.4407 C.3     1  UNL1        0.0513
     28 C           9.8579   39.5318    3.5199 C.3     1  UNL1        0.2089
@<TRIPOS>BOND
     1    27    28    1
     2    28    26    1
     3    24    26    1
     4    24     1    1
     5     2    10   ar
     6     3     2    1
     7    11    14   am
     8     5     1   ar
     9     6     5    1
    10     6     7    1
    11     7     8    1
    12     8     4    1
    13     9    18    1
    14    19    20   ar
    15    21    22   ar
    16    23    18   ar
    17    10    13    1
    18    10     4   ar
    19    13    11   am
    20    24    25    2
    21     1     2   ar
    22    11    12    2
    23     4     5   ar
    24     8     9    2
    25    18    19   ar
    26    20    21   ar
    27    22    23   ar
    28    13    15    1
    29    14    16    1
    30    14    17    1
@<TRIPOS>MOLECULE
MolPort-016-633-464 5592833 MCULE-8029622606 PubChem-6117359 ZINC000005592833
 28 30 0 0 0
SMALL
GASTEIGER

@<TRIPOS>ATOM
      1 C          10.1736   40.8156    8.2781 C.ar    1  UNL1        0.0864
      2 C          10.7381   40.4356    9.4977 C.ar    1  UNL1        0.0629
      3 C          10.0029   40.2255   10.7793 C.3     1  UNL1        0.0521
      4 C          12.3751   40.7639    8.1253 C.ar    1  UNL1        0.0708
      5 C          11.2491   40.9949    7.4233 C.ar    1  UNL1        0.0027
      6 C          11.4507   41.9140    6.2715 C.3     1  UNL1        0.0328
      7 C          12.9536   42.2655    6.3587 C.3     1  UNL1        0.0326
      8 C          13.4650   41.5495    7.5819 C.2     1  UNL1       -0.0047
      9 C          14.6784   41.6623    8.1318 C.2     1  UNL1       -0.0028
     10 N          12.0864   40.4127    9.3958 N.ar    1  UNL1       -0.2603
     11 C          13.4702   39.0540   10.9571 C.2     1  UNL1        0.3154
     12 O          12.9895   37.9706   10.5315 O.2     1  UNL1       -0.2513
     13 N          12.9757   40.3069   10.4794 N.am    1  UNL1       -0.2065
     14 N          14.4904   39.0314   11.9474 N.am    1  UNL1       -0.3120
     15 H          13.2706   41.1318   10.9287 H       1  UNL1        0.1773
     16 H          14.8692   39.8758   12.2832 H       1  UNL1        0.1465
     17 H          14.8178   38.1714   12.2973 H       1  UNL1        0.1465
     18 C          15.8071   42.4743    7.6396 C.ar    1  UNL1       -0.0003
     19 C          15.7093   43.3130    6.5184 C.ar    1  UNL1       -0.0000
     20 C          16.8128   44.0589    6.0938 C.ar    1  UNL1       -0.0000
     21 C          18.0227   43.9713    6.7868 C.ar    1  UNL1       -0.0000
     22 C          18.1285   43.1377    7.9032 C.ar    1  UNL1       -0.0000
     23 C          17.0238   42.3924    8.3265 C.ar    1  UNL1       -0.0000
     24 C           8.7651   41.1484    8.0010 C.2     1  UNL1        0.3421
     25 O           7.9276   40.2226    7.8197 O.2     1  UNL1       -0.2449
     26 O           8.3589   42.4857    7.9541 O.3     1  UNL1       -0.4454
     27 C           6.8401   43.2026    6.2187 C.3     1  UNL1        0.0513
     28 C           7.0154   42.8718    7.6896 C.3     1  UNL1        0.2089
@<TRIPOS>BOND
     1    27    28    1
     2    28    26    1
     3    24    26    1
     4    24     1    1
     5     2    10   ar
     6     3     2    1
     7    11    14   am
     8     5     1   ar
     9     6     5    1
    10     6     7    1
    11     7     8    1
    12     8     4    1
    13     9    18    1
    14    19    20   ar
    15    21    22   ar
    16    23    18   ar
    17    10    13    1
    18    10     4   ar
    19    13    11   am
    20    24    25    2
    21     1     2   ar
    22    11    12    2
    23     4     5   ar
    24     8     9    2
    25    18    19   ar
    26    20    21   ar
    27    22    23   ar
    28    13    15    1
    29    14    16    1
    30    14    17    1
@<TRIPOS>MOLECULE
MolPort-016-633-464 5592833 MCULE-8029622606 PubChem-6117359 ZINC000005592833
 28 30 0 0 0
SMALL
GASTEIGER

@<TRIPOS>ATOM
      1 C          14.0003   40.4222    9.5317 C.ar    1  UNL1        0.0864
      2 C          13.2229   40.0827   10.6412 C.ar    1  UNL1        0.0629
      3 C          13.6198   39.1577   11.7430 C.3     1  UNL1        0.0521
      4 C          11.9759   41.2822    9.3461 C.ar    1  UNL1        0.0708
      5 C          13.1760   41.2050    8.7398 C.ar    1  UNL1        0.0027
      6 C          13.1037   41.3820    7.2649 C.3     1  UNL1        0.0328
      7 C          11.5923   41.5789    7.0063 C.3     1  UNL1        0.0326
      8 C          10.9323   41.4510    8.3547 C.2     1  UNL1       -0.0047
      9 C           9.6201   41.4184    8.6085 C.2     1  UNL1       -0.0028
     10 N          11.9834   40.6087   10.5154 N.ar    1  UNL1       -0.2603
     11 C           9.9562   41.2487   11.8115 C.2     1  UNL1        0.3154
     12 O          10.1933   42.4790   11.6845 O.2     1  UNL1       -0.2513
     13 N          10.8801   40.2752   11.3201 N.am    1  UNL1       -0.2065
     14 N           8.7755   40.8239   12.4803 N.am    1  UNL1       -0.3120
     15 H          10.7375   39.3299   11.5555 H       1  UNL1        0.1773
     16 H           8.5859   39.8632   12.5820 H       1  UNL1        0.1465
     17 H           8.1476   41.4905   12.8417 H       1  UNL1        0.1465
     18 C           8.5211   41.5488    7.6334 C.ar    1  UNL1       -0.0003
     19 C           7.9337   40.4446    6.9965 C.ar    1  UNL1       -0.0000
     20 C           6.8959   40.6267    6.0777 C.ar    1  UNL1       -0.0000
     21 C           6.4379   41.9145    5.7884 C.ar    1  UNL1       -0.0000
     22 C           7.0183   43.0190    6.4175 C.ar    1  UNL1       -0.0000
     23 C           8.0561   42.8350    7.3361 C.ar    1  UNL1       -0.0000
     24 C          15.3337   39.9075    9.1734 C.2     1  UNL1        0.3421
     25 O          15.4867   38.6780    8.9361 O.2     1  UNL1       -0.2449
     26 O          16.4202   40.7833    9.0835 O.3     1  UNL1       -0.4454
     27 C          17.6625   42.7691    8.4958 C.3     1  UNL1        0.0513
     28 C          16.3896   41.9672    8.2951 C.3     1  UNL1        0.2089
@<TRIPOS>BOND
     1    27    28    1
     2    28    26    1
     3    24    26    1
     4    24     1    1
     5     2    10   ar
     6     3     2    1
     7    11    14   am
     8     5     1   ar
     9     6     5    1
    10     6     7    1
    11     7     8    1
    12     8     4    1
    13     9    18    1
    14    19    20   ar
    15    21    22   ar
    16    23    18   ar
    17    10    13    1
    18    10     4   ar
    19    13    11   am
    20    24    25    2
    21     1     2   ar
    22    11    12    2
    23     4     5   ar
    24     8     9    2
    25    18    19   ar
    26    20    21   ar
    27    22    23   ar
    28    13    15    1
    29    14    16    1
    30    14    17    1
@<TRIPOS>MOLECULE
MolPort-016-633-464 5592833 MCULE-8029622606 PubChem-6117359 ZINC000005592833
 28 30 0 0 0
SMALL
GASTEIGER

@<TRIPOS>ATOM
      1 C          11.2289   40.6563    8.7650 C.ar    1  UNL1        0.0864
      2 C          11.1364   41.0156   10.1114 C.ar    1  UNL1        0.0629
      3 C          11.8166   40.3344   11.2518 C.3     1  UNL1        0.0521
      4 C           9.7482   42.2715    9.0315 C.ar    1  UNL1        0.0708
      5 C          10.3440   41.4947    8.1066 C.ar    1  UNL1        0.0027
      6 C           9.5193   41.2945    6.8852 C.3     1  UNL1        0.0328
      7 C           8.2312   42.0916    7.1940 C.3     1  UNL1        0.0326
      8 C           8.4190   42.6383    8.5854 C.2     1  UNL1       -0.0047
      9 C           7.5111   43.2820    9.3263 C.2     1  UNL1       -0.0028
     10 N          10.2231   42.0009   10.2652 N.ar    1  UNL1       -0.2603
     11 C           8.7075   41.7116   12.2192 C.2     1  UNL1        0.3154
     12 O           8.1196   40.7312   11.6909 O.2     1  UNL1       -0.2513
     13 N           9.7059   42.4363   11.4978 N.am    1  UNL1       -0.2065
     14 N           8.3504   42.1231   13.5327 N.am    1  UNL1       -0.3120
     15 H          10.0463   43.2770   11.8806 H       1  UNL1        0.1773
     16 H           8.8071   42.8890   13.9498 H       1  UNL1        0.1465
     17 H           7.6464   41.6421   14.0249 H       1  UNL1        0.1465
     18 C           6.1370   43.6461    8.9330 C.ar    1  UNL1       -0.0003
     19 C           5.0028   42.9849    9.4294 C.ar    1  UNL1       -0.0000
     20 C           3.7228   43.3701    9.0200 C.ar    1  UNL1       -0.0000
     21 C           3.5673   44.4192    8.1105 C.ar    1  UNL1       -0.0000
     22 C           4.6915   45.0817    7.6108 C.ar    1  UNL1       -0.0000
     23 C           5.9708   44.6951    8.0214 C.ar    1  UNL1       -0.0000
     24 C          11.9526   39.5114    8.1848 C.2     1  UNL1        0.3421
     25 O          11.3610   38.4070    8.0375 O.2     1  UNL1       -0.2449
     26 O          13.2853   39.6557    7.7868 O.3     1  UNL1       -0.4454
     27 C          15.0679   40.4621    9.2026 C.3     1  UNL1        0.0513
     28 C          14.0654   40.7996    8.1141 C.3     1  UNL1        0.2089
@<TRIPOS>BOND
     1    27    28    1
     2    28    26    1
     3    24    26    1
     4    24     1    1
     5     2    10   ar
     6     3     2    1
     7    11    14   am
     8     5     1   ar
     9     6     5    1
    10     6     7    1
    11     7     8    1
    12     8     4    1
    13     9    18    1
    14    19    20   ar
    15    21    22   ar
    16    23    18   ar
    17    10    13    1
    18    10     4   ar
    19    13    11   am
    20    24    25    2
    21     1     2   ar
    22    11    12    2
    23     4     5   ar
    24     8     9    2
    25    18    19   ar
    26    20    21   ar
    27    22    23   ar
    28    13    15    1
    29    14    16    1
    30    14    17    1
@<TRIPOS>MOLECULE
MolPort-016-633-464 5592833 MCULE-8029622606 PubChem-6117359 ZINC000005592833
 28 30 0 0 0
SMALL
GASTEIGER

@<TRIPOS>ATOM
      1 C          15.8276   39.4964    9.6746 C.ar    1  UNL1        0.0864
      2 C          15.4675   38.1557    9.8271 C.ar    1  UNL1        0.0629
      3 C          16.4060   37.0033    9.9630 C.3     1  UNL1        0.0521
      4 C          13.6421   39.2583    9.4763 C.ar    1  UNL1        0.0708
      5 C          14.6336   40.1699    9.4740 C.ar    1  UNL1        0.0027
      6 C          14.3100   41.3908    8.6888 C.3     1  UNL1        0.0328
      7 C          12.8914   41.0978    8.1486 C.3     1  UNL1        0.0326
      8 C          12.5513   39.7140    8.6380 C.2     1  UNL1       -0.0047
      9 C          11.4793   38.9855    8.3102 C.2     1  UNL1       -0.0028
     10 N          14.1283   38.0192    9.6981 N.ar    1  UNL1       -0.2603
     11 C          13.1557   35.9416   10.6657 C.2     1  UNL1        0.3154
     12 O          13.6460   36.1730   11.8024 O.2     1  UNL1       -0.2513
     13 N          13.4519   36.7949    9.5581 N.am    1  UNL1       -0.2065
     14 N          12.3276   34.8016   10.4742 N.am    1  UNL1       -0.3120
     15 H          13.1700   36.5129    8.6580 H       1  UNL1        0.1773
     16 H          11.9421   34.6166    9.5875 H       1  UNL1        0.1465
     17 H          12.1399   34.1973   11.2284 H       1  UNL1        0.1465
     18 C          10.3626   39.3884    7.4348 C.ar    1  UNL1       -0.0003
     19 C           9.1498   38.6844    7.3754 C.ar    1  UNL1       -0.0000
     20 C           8.1251   39.1098    6.5248 C.ar    1  UNL1       -0.0000
     21 C           8.3057   40.2422    5.7267 C.ar    1  UNL1       -0.0000
     22 C           9.5106   40.9478    5.7792 C.ar    1  UNL1       -0.0000
     23 C          10.5343   40.5210    6.6305 C.ar    1  UNL1       -0.0000
     24 C          17.1848   40.0575    9.5533 C.2     1  UNL1        0.3421
     25 O          17.4048   40.9909    8.7337 O.2     1  UNL1       -0.2449
     26 O          18.2191   39.5649   10.3551 O.3     1  UNL1       -0.4454
     27 C          19.6525   37.6263   10.2140 C.3     1  UNL1        0.0513
     28 C          19.4421   39.0762    9.8171 C.3     1  UNL1        0.2089
@<TRIPOS>BOND
     1    27    28    1
     2    28    26    1
     3    24    26    1
     4    24     1    1
     5     2    10   ar
     6     3     2    1
     7    11    14   am
     8     5     1   ar
     9     6     5    1
    10     6     7    1
    11     7     8    1
    12     8     4    1
    13     9    18    1
    14    19    20   ar
    15    21    22   ar
    16    23    18   ar
    17    10    13    1
    18    10     4   ar
    19    13    11   am
    20    24    25    2
    21     1     2   ar
    22    11    12    2
    23     4     5   ar
    24     8     9    2
    25    18    19   ar
    26    20    21   ar
    27    22    23   ar
    28    13    15    1
    29    14    16    1
    30    14    17    1
@<TRIPOS>MOLECULE
MolPort-016-633-464 5592833 MCULE-8029622606 PubChem-6117359 ZINC000005592833
 28 30 0 0 0
SMALL
GASTEIGER

@<TRIPOS>ATOM
      1 C          11.6986   38.3399    9.5868 C.ar    1  UNL1        0.0864
      2 C          10.8746   38.7843    8.5504 C.ar    1  UNL1        0.0629
      3 C           9.7743   38.0078    7.9074 C.3     1  UNL1        0.0521
      4 C          12.3762   40.3088    8.8541 C.ar    1  UNL1        0.0708
      5 C          12.6304   39.3496    9.7648 C.ar    1  UNL1        0.0027
      6 C          14.0513   39.3141   10.2025 C.3     1  UNL1        0.0328
      7 C          14.7037   40.4470    9.3773 C.3     1  UNL1        0.0326
      8 C          13.6032   40.9979    8.5079 C.2     1  UNL1       -0.0047
      9 C          13.7257   41.9038    7.5324 C.2     1  UNL1       -0.0028
     10 N          11.3011   39.9876    8.1045 N.ar    1  UNL1       -0.2603
     11 C           9.7725   41.5425    6.9026 C.2     1  UNL1        0.3154
     12 O           9.0479   41.7075    7.9193 O.2     1  UNL1       -0.2513
     13 N          10.8591   40.6144    6.9263 N.am    1  UNL1       -0.2065
     14 N           9.4860   42.2604    5.7090 N.am    1  UNL1       -0.3120
     15 H          11.3179   40.4049    6.0809 H       1  UNL1        0.1773
     16 H          10.0497   42.1347    4.9117 H       1  UNL1        0.1465
     17 H           8.7241   42.8832    5.6800 H       1  UNL1        0.1465
     18 C          14.9552   42.6054    7.1180 C.ar    1  UNL1       -0.0003
     19 C          16.1743   42.4720    7.8005 C.ar    1  UNL1       -0.0000
     20 C          17.3088   43.1632    7.3651 C.ar    1  UNL1       -0.0000
     21 C          17.2326   43.9935    6.2441 C.ar    1  UNL1       -0.0000
     22 C          16.0223   44.1325    5.5599 C.ar    1  UNL1       -0.0000
     23 C          14.8887   43.4404    5.9967 C.ar    1  UNL1       -0.0000
     24 C          11.7092   37.0112   10.2238 C.2     1  UNL1        0.3421
     25 O          10.6187   36.4543   10.5274 O.2     1  UNL1       -0.2449
     26 O          12.9242   36.3667   10.4764 O.3     1  UNL1       -0.4454
     27 C          14.8397   35.7949    9.1213 C.3     1  UNL1        0.0513
     28 C          13.4641   35.3773    9.6082 C.3     1  UNL1        0.2089
@<TRIPOS>BOND
     1    27    28    1
     2    28    26    1
     3    24    26    1
     4    24     1    1
     5     2    10   ar
     6     3     2    1
     7    11    14   am
     8     5     1   ar
     9     6     5    1
    10     6     7    1
    11     7     8    1
    12     8     4    1
    13     9    18    1
    14    19    20   ar
    15    21    22   ar
    16    23    18   ar
    17    10    13    1
    18    10     4   ar
    19    13    11   am
    20    24    25    2
    21     1     2   ar
    22    11    12    2
    23     4     5   ar
    24     8     9    2
    25    18    19   ar
    26    20    21   ar
    27    22    23   ar
    28    13    15    1
    29    14    16    1
    30    14    17    1
@<TRIPOS>MOLECULE
MolPort-016-633-464 5592833 MCULE-8029622606 PubChem-6117359 ZINC000005592833
 28 30 0 0 0
SMALL
GASTEIGER

@<TRIPOS>ATOM
      1 C          15.7251   40.3216    9.6694 C.ar    1  UNL1        0.0864
      2 C          15.3373   39.2940   10.5320 C.ar    1  UNL1        0.0629
      3 C          16.2424   38.2948   11.1721 C.3     1  UNL1        0.0521
      4 C          13.5245   40.2237    9.8108 C.ar    1  UNL1        0.0708
      5 C          14.5411   40.9041    9.2472 C.ar    1  UNL1        0.0027
      6 C          14.1694   41.5676    7.9691 C.3     1  UNL1        0.0328
      7 C          12.6859   41.1736    7.7847 C.3     1  UNL1        0.0326
      8 C          12.3573   40.2815    8.9537 C.2     1  UNL1       -0.0047
      9 C          11.2274   39.5939    9.1484 C.2     1  UNL1       -0.0028
     10 N          13.9883   39.2382   10.6073 N.ar    1  UNL1       -0.2603
     11 C          13.0413   36.9368   10.5316 C.2     1  UNL1        0.3154
     12 O          13.3581   36.7843    9.3224 O.2     1  UNL1       -0.2513
     13 N          13.2554   38.1883   11.1877 N.am    1  UNL1       -0.2065
     14 N          12.4332   35.8650   11.2413 N.am    1  UNL1       -0.3120
     15 H          12.8730   38.3209   12.0852 H       1  UNL1        0.1773
     16 H          12.1838   35.9795   12.1868 H       1  UNL1        0.1465
     17 H          12.2617   35.0085   10.7872 H       1  UNL1        0.1465
     18 C          10.0281   39.5901    8.2896 C.ar    1  UNL1       -0.0003
     19 C           9.1108   40.6520    8.2589 C.ar    1  UNL1       -0.0000
     20 C           7.9885   40.5942    7.4272 C.ar    1  UNL1       -0.0000
     21 C           7.7748   39.4738    6.6204 C.ar    1  UNL1       -0.0000
     22 C           8.6828   38.4121    6.6462 C.ar    1  UNL1       -0.0000
     23 C           9.8046   38.4716    7.4785 C.ar    1  UNL1       -0.0000
     24 C          17.0771   40.6075    9.1578 C.2     1  UNL1        0.3421
     25 O          18.0439   39.8731    9.5004 O.2     1  UNL1       -0.2449
     26 O          17.2819   41.6807    8.2850 O.3     1  UNL1       -0.4454
     27 C          17.1989   44.0121    7.6606 C.3     1  UNL1        0.0513
     28 C          17.5427   43.0029    8.7408 C.3     1  UNL1        0.2089
@<TRIPOS>BOND
     1    27    28    1
     2    28    26    1
     3    24    26    1
     4    24     1    1
     5     2    10   ar
     6     3     2    1
     7    11    14   am
     8     5     1   ar
     9     6     5    1
    10     6     7    1
    11     7     8    1
    12     8     4    1
    13     9    18    1
    14    19    20   ar
    15    21    22   ar
    16    23    18   ar
    17    10    13    1
    18    10     4   ar
    19    13    11   am
    20    24    25    2
    21     1     2   ar
    22    11    12    2
    23     4     5   ar
    24     8     9    2
    25    18    19   ar
    26    20    21   ar
    27    22    23   ar
    28    13    15    1
    29    14    16    1
    30    14    17    1
@<TRIPOS>MOLECULE
MolPort-016-633-464 5592833 MCULE-8029622606 PubChem-6117359 ZINC000005592833
 28 30 0 0 0
SMALL
GASTEIGER

@<TRIPOS>ATOM
      1 C          10.4891   39.5411    7.7974 C.ar    1  UNL1        0.0864
      2 C          11.2068   38.7353    8.6839 C.ar    1  UNL1        0.0629
      3 C          10.6248   37.8432    9.7292 C.3     1  UNL1        0.0521
      4 C          12.6553   39.9152    7.5975 C.ar    1  UNL1        0.0708
      5 C          11.4498   40.2629    7.1078 C.ar    1  UNL1        0.0027
      6 C          11.4238   41.6291    6.5206 C.3     1  UNL1        0.0328
      7 C          12.8693   42.1335    6.7351 C.3     1  UNL1        0.0326
      8 C          13.5790   41.0245    7.4677 C.2     1  UNL1       -0.0047
      9 C          14.8119   41.0608    7.9834 C.2     1  UNL1       -0.0028
     10 N          12.5316   38.9759    8.5583 N.ar    1  UNL1       -0.2603
     11 C          13.7209   39.0957   10.7423 C.2     1  UNL1        0.3154
     12 O          13.1239   40.1537   11.0745 O.2     1  UNL1       -0.2513
     13 N          13.5216   38.5236    9.4479 N.am    1  UNL1       -0.2065
     14 N          14.6279   38.4836   11.6504 N.am    1  UNL1       -0.3120
     15 H          14.1030   37.7804    9.1671 H       1  UNL1        0.1773
     16 H          15.0970   37.6565   11.3952 H       1  UNL1        0.1465
     17 H          14.7869   38.8869   12.5343 H       1  UNL1        0.1465
     18 C          15.7751   42.1755    7.9104 C.ar    1  UNL1       -0.0003
     19 C          16.9333   42.2335    8.7010 C.ar    1  UNL1       -0.0000
     20 C          17.8111   43.3162    8.5927 C.ar    1  UNL1       -0.0000
     21 C          17.5368   44.3495    7.6933 C.ar    1  UNL1       -0.0000
     22 C          16.3853   44.2997    6.9035 C.ar    1  UNL1       -0.0000
     23 C          15.5086   43.2162    7.0132 C.ar    1  UNL1       -0.0000
     24 C           9.0299   39.7365    7.7357 C.2     1  UNL1        0.3421
     25 O           8.4698   40.5268    8.5438 O.2     1  UNL1       -0.2449
     26 O           8.2737   39.0581    6.7747 O.3     1  UNL1       -0.4454
     27 C           9.0985   39.1534    4.5068 C.3     1  UNL1        0.0513
     28 C           8.0194   39.5912    5.4804 C.3     1  UNL1        0.2089
@<TRIPOS>BOND
     1    27    28    1
     2    28    26    1
     3    24    26    1
     4    24     1    1
     5     2    10   ar
     6     3     2    1
     7    11    14   am
     8     5     1   ar
     9     6     5    1
    10     6     7    1
    11     7     8    1
    12     8     4    1
    13     9    18    1
    14    19    20   ar
    15    21    22   ar
    16    23    18   ar
    17    10    13    1
    18    10     4   ar
    19    13    11   am
    20    24    25    2
    21     1     2   ar
    22    11    12    2
    23     4     5   ar
    24     8     9    2
    25    18    19   ar
    26    20    21   ar
    27    22    23   ar
    28    13    15    1
    29    14    16    1
    30    14    17    1
