@<TRIPOS>MOLECULE
MolPort-004-160-381 CSC027240159 CSSS00027240159 ChemDiv-D039-0048 MCULE-6137790506 PubChem-16309714 Z198974558 ZINC000008338083 ZINC08338083
 25 26 0 0 0
SMALL
GASTEIGER

@<TRIPOS>ATOM
      1 C          13.8709   41.1657    8.5477 C.ar    1  UNL1        0.0857
      2 C          13.1410   41.7948    7.5459 C.ar    1  UNL1        0.0408
      3 C          13.7028   42.4824    6.3495 C.3     1  UNL1        0.0500
      4 C          11.6999   41.0309    8.9359 C.ar    1  UNL1        0.1085
      5 C          12.9330   40.6768    9.4388 C.ar    1  UNL1        0.0153
      6 C          13.1823   39.9173   10.6980 C.3     1  UNL1        0.0342
      7 N          11.8152   41.7145    7.7794 N.ar    1  UNL1       -0.3451
      8 H          11.0875   42.0773    7.2244 H       1  UNL1        0.1668
      9 C           9.2897   41.5500    9.5467 C.2     1  UNL1        0.3054
     10 O           9.3050   42.6605    8.9498 O.2     1  UNL1       -0.2525
     11 N          10.4510   40.7143    9.5619 N.am    1  UNL1       -0.2554
     12 N           8.1057   41.1052   10.2171 N.am    1  UNL1       -0.2903
     13 H          10.3867   39.8557   10.0393 H       1  UNL1        0.1578
     14 H           8.1333   40.2251   10.6574 H       1  UNL1        0.1509
     15 C           6.8602   41.8630   10.2948 C.3     1  UNL1        0.0730
     16 C           5.9558   41.3253   11.4114 C.3     1  UNL1        0.0196
     17 C           4.5416   41.8763   11.2581 C.3     1  UNL1        0.0017
     18 C           3.9054   41.4666    9.9214 C.3     1  UNL1        0.0001
     19 C           4.9245   41.0830    8.8414 C.3     1  UNL1        0.0017
     20 C           6.1764   41.9549    8.9195 C.3     1  UNL1        0.0196
     21 C          15.3397   41.0424    8.6470 C.2     1  UNL1        0.3421
     22 O          15.8526   40.0454    9.2249 O.2     1  UNL1       -0.2449
     23 O          16.1589   42.0318    8.0991 O.3     1  UNL1       -0.4454
     24 C          17.6070   43.9280    8.3267 C.3     1  UNL1        0.0513
     25 C          17.3129   42.5112    8.7731 C.3     1  UNL1        0.2089
@<TRIPOS>BOND
     1    24    25    1
     2    25    23    1
     3    21    23    1
     4    21     1    1
     5     2     7   ar
     6     3     2    1
     7     4    11    1
     8     9    12   am
     9    15    12    1
    10    15    16    1
    11    16    17    1
    12    17    18    1
    13    18    19    1
    14    19    20    1
    15    20    15    1
    16     5     1   ar
    17     6     5    1
    18     7     4   ar
    19    11     9   am
    20    21    22    2
    21     1     2   ar
    22     4     5   ar
    23     9    10    2
    24     7     8    1
    25    11    13    1
    26    12    14    1
@<TRIPOS>MOLECULE
MolPort-004-160-381 CSC027240159 CSSS00027240159 ChemDiv-D039-0048 MCULE-6137790506 PubChem-16309714 Z198974558 ZINC000008338083 ZINC08338083
 25 26 0 0 0
SMALL
GASTEIGER

@<TRIPOS>ATOM
      1 C          13.5437   38.3323    9.9424 C.ar    1  UNL1        0.0857
      2 C          13.8088   39.6411    9.5566 C.ar    1  UNL1        0.0408
      3 C          15.1475   40.2945    9.5284 C.3     1  UNL1        0.0500
      4 C          11.6914   39.3822    9.3517 C.ar    1  UNL1        0.1085
      5 C          12.1763   38.1754    9.8069 C.ar    1  UNL1        0.0153
      6 C          11.3669   36.9553   10.0914 C.3     1  UNL1        0.0342
      7 N          12.6804   40.2852    9.1953 N.ar    1  UNL1       -0.3451
      8 H          12.5968   41.2154    8.8839 H       1  UNL1        0.1668
      9 C           9.6417   40.8823    9.3506 C.2     1  UNL1        0.3054
     10 O          10.2643   41.8501    9.8657 O.2     1  UNL1       -0.2525
     11 N          10.3103   39.6468    9.0790 N.am    1  UNL1       -0.2554
     12 N           8.2532   41.0063    9.0251 N.am    1  UNL1       -0.2903
     13 H           9.7803   38.9229    8.6735 H       1  UNL1        0.1578
     14 H           7.8102   40.2310    8.6106 H       1  UNL1        0.1509
     15 C           7.4470   42.1998    9.2638 C.3     1  UNL1        0.0730
     16 C           5.9513   41.8592    9.2898 C.3     1  UNL1        0.0196
     17 C           5.1171   43.1322    9.1858 C.3     1  UNL1        0.0017
     18 C           5.3872   43.8929    7.8789 C.3     1  UNL1        0.0001
     19 C           6.7371   43.5566    7.2334 C.3     1  UNL1        0.0017
     20 C           7.8193   43.3290    8.2874 C.3     1  UNL1        0.0196
     21 C          14.5133   37.3171   10.4027 C.2     1  UNL1        0.3421
     22 O          14.5041   36.9333   11.6042 O.2     1  UNL1       -0.2449
     23 O          15.4395   36.7831    9.5044 O.3     1  UNL1       -0.4454
     24 C          14.5598   34.6372    8.8999 C.3     1  UNL1        0.0513
     25 C          15.0421   35.9830    8.4009 C.3     1  UNL1        0.2089
@<TRIPOS>BOND
     1    24    25    1
     2    25    23    1
     3    21    23    1
     4    21     1    1
     5     2     7   ar
     6     3     2    1
     7     4    11    1
     8     9    12   am
     9    15    12    1
    10    15    16    1
    11    16    17    1
    12    17    18    1
    13    18    19    1
    14    19    20    1
    15    20    15    1
    16     5     1   ar
    17     6     5    1
    18     7     4   ar
    19    11     9   am
    20    21    22    2
    21     1     2   ar
    22     4     5   ar
    23     9    10    2
    24     7     8    1
    25    11    13    1
    26    12    14    1
@<TRIPOS>MOLECULE
MolPort-004-160-381 CSC027240159 CSSS00027240159 ChemDiv-D039-0048 MCULE-6137790506 PubChem-16309714 Z198974558 ZINC000008338083 ZINC08338083
 25 26 0 0 0
SMALL
GASTEIGER

@<TRIPOS>ATOM
      1 C          14.3520   42.0537    7.5658 C.ar    1  UNL1        0.0857
      2 C          14.0052   42.7521    6.4152 C.ar    1  UNL1        0.0408
      3 C          14.9391   43.4964    5.5243 C.3     1  UNL1        0.0500
      4 C          12.1787   41.9370    7.1845 C.ar    1  UNL1        0.1085
      5 C          13.1679   41.5321    8.0543 C.ar    1  UNL1        0.0153
      6 C          12.9754   40.6976    9.2754 C.3     1  UNL1        0.0342
      7 N          12.6792   42.6832    6.1792 N.ar    1  UNL1       -0.3451
      8 H          12.1830   43.0904    5.4327 H       1  UNL1        0.1668
      9 C           9.8980   42.2137    8.2677 C.2     1  UNL1        0.3054
     10 O          10.3030   43.1138    9.0523 O.2     1  UNL1       -0.2525
     11 N          10.7920   41.6083    7.3288 N.am    1  UNL1       -0.2554
     12 N           8.5326   41.7851    8.3017 N.am    1  UNL1       -0.2903
     13 H          10.4259   40.9123    6.7365 H       1  UNL1        0.1578
     14 H           8.2557   41.0905    7.6613 H       1  UNL1        0.1509
     15 C           7.5212   42.3039    9.2178 C.3     1  UNL1        0.0730
     16 C           6.3665   41.3079    9.3865 C.3     1  UNL1        0.0196
     17 C           5.1726   41.9892   10.0481 C.3     1  UNL1        0.0017
     18 C           4.6419   43.1624    9.2105 C.3     1  UNL1        0.0001
     19 C           5.6681   43.7348    8.2249 C.3     1  UNL1        0.0017
     20 C           7.0773   43.7208    8.8145 C.3     1  UNL1        0.0196
     21 C          15.6997   41.8978    8.1507 C.2     1  UNL1        0.3421
     22 O          16.5311   42.8440    8.0833 O.2     1  UNL1       -0.2449
     23 O          16.0507   40.7009    8.7785 O.3     1  UNL1       -0.4454
     24 C          16.9649   39.4000   10.5718 C.3     1  UNL1        0.0513
     25 C          17.1350   40.6202    9.6915 C.3     1  UNL1        0.2089
@<TRIPOS>BOND
     1    24    25    1
     2    25    23    1
     3    21    23    1
     4    21     1    1
     5     2     7   ar
     6     3     2    1
     7     4    11    1
     8     9    12   am
     9    15    12    1
    10    15    16    1
    11    16    17    1
    12    17    18    1
    13    18    19    1
    14    19    20    1
    15    20    15    1
    16     5     1   ar
    17     6     5    1
    18     7     4   ar
    19    11     9   am
    20    21    22    2
    21     1     2   ar
    22     4     5   ar
    23     9    10    2
    24     7     8    1
    25    11    13    1
    26    12    14    1
@<TRIPOS>MOLECULE
MolPort-004-160-381 CSC027240159 CSSS00027240159 ChemDiv-D039-0048 MCULE-6137790506 PubChem-16309714 Z198974558 ZINC000008338083 ZINC08338083
 25 26 0 0 0
SMALL
GASTEIGER

@<TRIPOS>ATOM
      1 C          13.7322   40.6693    9.1916 C.ar    1  UNL1        0.0857
      2 C          13.0406   40.1525   10.2810 C.ar    1  UNL1        0.0408
      3 C          13.6433   39.4736   11.4624 C.3     1  UNL1        0.0500
      4 C          11.5546   40.9751    8.9742 C.ar    1  UNL1        0.1085
      5 C          12.7655   41.1971    8.3551 C.ar    1  UNL1        0.0153
      6 C          12.9687   41.8739    7.0416 C.3     1  UNL1        0.0342
      7 N          11.7110   40.3373   10.1519 N.ar    1  UNL1       -0.3451
      8 H          11.0056   40.0649   10.7824 H       1  UNL1        0.1668
      9 C           9.2610   42.0494    9.1656 C.2     1  UNL1        0.3054
     10 O           9.4278   42.3525   10.3780 O.2     1  UNL1       -0.2525
     11 N          10.2875   41.3705    8.4358 N.am    1  UNL1       -0.2554
     12 N           8.0400   42.3841    8.4976 N.am    1  UNL1       -0.2903
     13 H          10.1093   41.1589    7.4909 H       1  UNL1        0.1578
     14 H           7.9582   42.1421    7.5468 H       1  UNL1        0.1509
     15 C           6.9073   43.0586    9.1249 C.3     1  UNL1        0.0730
     16 C           5.6597   42.1657    9.1167 C.3     1  UNL1        0.0196
     17 C           4.4178   42.9891    9.4433 C.3     1  UNL1        0.0017
     18 C           4.1822   44.1080    8.4176 C.3     1  UNL1        0.0001
     19 C           5.4404   44.5091    7.6376 C.3     1  UNL1        0.0017
     20 C           6.6859   44.4562    8.5206 C.3     1  UNL1        0.0196
     21 C          15.1923   40.6595    8.9672 C.2     1  UNL1        0.3421
     22 O          15.8572   39.6086    9.1786 O.2     1  UNL1       -0.2449
     23 O          15.8346   41.8161    8.5202 O.3     1  UNL1       -0.4454
     24 C          17.5388   43.4960    8.6544 C.3     1  UNL1        0.0513
     25 C          17.2305   42.0138    8.6875 C.3     1  UNL1        0.2089
@<TRIPOS>BOND
     1    24    25    1
     2    25    23    1
     3    21    23    1
     4    21     1    1
     5     2     7   ar
     6     3     2    1
     7     4    11    1
     8     9    12   am
     9    15    12    1
    10    15    16    1
    11    16    17    1
    12    17    18    1
    13    18    19    1
    14    19    20    1
    15    20    15    1
    16     5     1   ar
    17     6     5    1
    18     7     4   ar
    19    11     9   am
    20    21    22    2
    21     1     2   ar
    22     4     5   ar
    23     9    10    2
    24     7     8    1
    25    11    13    1
    26    12    14    1
@<TRIPOS>MOLECULE
MolPort-004-160-381 CSC027240159 CSSS00027240159 ChemDiv-D039-0048 MCULE-6137790506 PubChem-16309714 Z198974558 ZINC000008338083 ZINC08338083
 25 26 0 0 0
SMALL
GASTEIGER

@<TRIPOS>ATOM
      1 C          16.3099   42.1012    8.0612 C.ar    1  UNL1        0.0857
      2 C          16.3471   43.1964    7.2060 C.ar    1  UNL1        0.0408
      3 C          17.5735   43.8678    6.6913 C.3     1  UNL1        0.0500
      4 C          14.2721   42.7665    7.5254 C.ar    1  UNL1        0.1085
      5 C          14.9682   41.8320    8.2610 C.ar    1  UNL1        0.0153
      6 C          14.3708   40.7535    9.1003 C.3     1  UNL1        0.0342
      7 N          15.1049   43.6054    6.8767 N.ar    1  UNL1       -0.3451
      8 H          14.8589   44.3557    6.2887 H       1  UNL1        0.1668
      9 C          11.9969   41.8474    6.8695 C.2     1  UNL1        0.3054
     10 O          12.4884   40.8047    6.3587 O.2     1  UNL1       -0.2525
     11 N          12.8432   42.8400    7.4576 N.am    1  UNL1       -0.2554
     12 N          10.5803   42.0532    6.8721 N.am    1  UNL1       -0.2903
     13 H          12.4101   43.6345    7.8455 H       1  UNL1        0.1578
     14 H          10.2386   42.8741    7.2948 H       1  UNL1        0.1509
     15 C           9.6057   41.1333    6.2929 C.3     1  UNL1        0.0730
     16 C           9.5010   39.8465    7.1218 C.3     1  UNL1        0.0196
     17 C           8.7631   38.7685    6.3340 C.3     1  UNL1        0.0017
     18 C           9.4891   38.4101    5.0287 C.3     1  UNL1        0.0001
     19 C          10.4412   39.5035    4.5284 C.3     1  UNL1        0.0017
     20 C           9.8802   40.8988    4.7972 C.3     1  UNL1        0.0196
     21 C          17.4580   41.3734    8.6397 C.2     1  UNL1        0.3421
     22 O          18.5171   41.2288    7.9700 O.2     1  UNL1       -0.2449
     23 O          17.3681   40.8464    9.9298 O.3     1  UNL1       -0.4454
     24 C          16.8052   38.9679   11.3077 C.3     1  UNL1        0.0513
     25 C          17.7121   39.4993   10.2177 C.3     1  UNL1        0.2089
@<TRIPOS>BOND
     1    24    25    1
     2    25    23    1
     3    21    23    1
     4    21     1    1
     5     2     7   ar
     6     3     2    1
     7     4    11    1
     8     9    12   am
     9    15    12    1
    10    15    16    1
    11    16    17    1
    12    17    18    1
    13    18    19    1
    14    19    20    1
    15    20    15    1
    16     5     1   ar
    17     6     5    1
    18     7     4   ar
    19    11     9   am
    20    21    22    2
    21     1     2   ar
    22     4     5   ar
    23     9    10    2
    24     7     8    1
    25    11    13    1
    26    12    14    1
@<TRIPOS>MOLECULE
MolPort-004-160-381 CSC027240159 CSSS00027240159 ChemDiv-D039-0048 MCULE-6137790506 PubChem-16309714 Z198974558 ZINC000008338083 ZINC08338083
 25 26 0 0 0
SMALL
GASTEIGER

@<TRIPOS>ATOM
      1 C          11.8716   41.5107    7.0496 C.ar    1  UNL1        0.0857
      2 C          11.0444   40.7222    6.2584 C.ar    1  UNL1        0.0408
      3 C          11.3678   40.1945    4.9031 C.3     1  UNL1        0.0500
      4 C           9.9475   41.1077    8.0586 C.ar    1  UNL1        0.1085
      5 C          11.1555   41.7538    8.2076 C.ar    1  UNL1        0.0153
      6 C          11.5833   42.5526    9.3922 C.3     1  UNL1        0.0342
      7 N           9.8689   40.4740    6.8710 N.ar    1  UNL1       -0.3451
      8 H           9.1149   39.9438    6.5252 H       1  UNL1        0.1668
      9 C           7.5034   41.1103    8.7499 C.2     1  UNL1        0.3054
     10 O           7.0944   41.1079    7.5573 O.2     1  UNL1       -0.2525
     11 N           8.9045   41.1084    9.0403 N.am    1  UNL1       -0.2554
     12 N           6.5697   41.1113    9.8350 N.am    1  UNL1       -0.2903
     13 H           9.1722   41.1075    9.9878 H       1  UNL1        0.1578
     14 H           6.9327   41.0979   10.7500 H       1  UNL1        0.1509
     15 C           5.1179   41.1307    9.6821 C.3     1  UNL1        0.0730
     16 C           4.6088   42.5554    9.4277 C.3     1  UNL1        0.0196
     17 C           3.0968   42.6189    9.6198 C.3     1  UNL1        0.0017
     18 C           2.6808   42.2363   11.0481 C.3     1  UNL1        0.0001
     19 C           3.7235   41.3932   11.7926 C.3     1  UNL1        0.0017
     20 C           4.4241   40.4133   10.8531 C.3     1  UNL1        0.0196
     21 C          13.2305   41.9925    6.7276 C.2     1  UNL1        0.3421
     22 O          14.2178   41.6003    7.4077 O.2     1  UNL1       -0.2449
     23 O          13.4195   42.8826    5.6683 O.3     1  UNL1       -0.4454
     24 C          15.5772   43.9047    5.8768 C.3     1  UNL1        0.0513
     25 C          14.0800   44.1275    5.8406 C.3     1  UNL1        0.2089
@<TRIPOS>BOND
     1    24    25    1
     2    25    23    1
     3    21    23    1
     4    21     1    1
     5     2     7   ar
     6     3     2    1
     7     4    11    1
     8     9    12   am
     9    15    12    1
    10    15    16    1
    11    16    17    1
    12    17    18    1
    13    18    19    1
    14    19    20    1
    15    20    15    1
    16     5     1   ar
    17     6     5    1
    18     7     4   ar
    19    11     9   am
    20    21    22    2
    21     1     2   ar
    22     4     5   ar
    23     9    10    2
    24     7     8    1
    25    11    13    1
    26    12    14    1
@<TRIPOS>MOLECULE
MolPort-004-160-381 CSC027240159 CSSS00027240159 ChemDiv-D039-0048 MCULE-6137790506 PubChem-16309714 Z198974558 ZINC000008338083 ZINC08338083
 25 26 0 0 0
SMALL
GASTEIGER

@<TRIPOS>ATOM
      1 C          15.1607   41.7478    8.0545 C.ar    1  UNL1        0.0857
      2 C          14.5770   40.7080    8.7688 C.ar    1  UNL1        0.0408
      3 C          15.2505   39.8569    9.7896 C.3     1  UNL1        0.0500
      4 C          13.0409   41.4818    7.4905 C.ar    1  UNL1        0.1085
      5 C          14.1625   42.2399    7.2334 C.ar    1  UNL1        0.0153
      6 C          14.2576   43.3633    6.2569 C.3     1  UNL1        0.0342
      7 N          13.2829   40.5426    8.4272 N.ar    1  UNL1       -0.3451
      8 H          12.6504   39.8784    8.7851 H       1  UNL1        0.1668
      9 C          10.5361   41.9027    7.5187 C.2     1  UNL1        0.3054
     10 O          10.4914   41.9679    8.7770 O.2     1  UNL1       -0.2525
     11 N          11.7758   41.6660    6.8444 N.am    1  UNL1       -0.2554
     12 N           9.3447   42.0685    6.7428 N.am    1  UNL1       -0.2903
     13 H          11.7578   41.6267    5.8608 H       1  UNL1        0.1578
     14 H           9.4279   42.0250    5.7627 H       1  UNL1        0.1509
     15 C           8.0149   42.2975    7.3002 C.3     1  UNL1        0.0730
     16 C           7.1468   43.1181    6.3376 C.3     1  UNL1        0.0196
     17 C           5.9104   43.6453    7.0591 C.3     1  UNL1        0.0017
     18 C           6.2770   44.5633    8.2348 C.3     1  UNL1        0.0001
     19 C           7.6998   44.3512    8.7668 C.3     1  UNL1        0.0017
     20 C           8.0988   42.8772    8.7230 C.3     1  UNL1        0.0196
     21 C          16.5538   42.2306    8.1469 C.2     1  UNL1        0.3421
     22 O          17.4988   41.4088    8.2975 O.2     1  UNL1       -0.2449
     23 O          16.8220   43.5987    8.0666 O.3     1  UNL1       -0.4454
     24 C          17.7487   43.8461    5.8702 C.3     1  UNL1        0.0513
     25 C          17.9379   44.1057    7.3499 C.3     1  UNL1        0.2089
@<TRIPOS>BOND
     1    24    25    1
     2    25    23    1
     3    21    23    1
     4    21     1    1
     5     2     7   ar
     6     3     2    1
     7     4    11    1
     8     9    12   am
     9    15    12    1
    10    15    16    1
    11    16    17    1
    12    17    18    1
    13    18    19    1
    14    19    20    1
    15    20    15    1
    16     5     1   ar
    17     6     5    1
    18     7     4   ar
    19    11     9   am
    20    21    22    2
    21     1     2   ar
    22     4     5   ar
    23     9    10    2
    24     7     8    1
    25    11    13    1
    26    12    14    1
@<TRIPOS>MOLECULE
MolPort-004-160-381 CSC027240159 CSSS00027240159 ChemDiv-D039-0048 MCULE-6137790506 PubChem-16309714 Z198974558 ZINC000008338083 ZINC08338083
 25 26 0 0 0
SMALL
GASTEIGER

@<TRIPOS>ATOM
      1 C          15.5144   39.7017   10.0113 C.ar    1  UNL1        0.0857
      2 C          15.2424   40.7822    9.1802 C.ar    1  UNL1        0.0408
      3 C          16.2466   41.5898    8.4324 C.3     1  UNL1        0.0500
      4 C          13.3449   40.1095    9.9145 C.ar    1  UNL1        0.1085
      5 C          14.2849   39.2753   10.4796 C.ar    1  UNL1        0.0153
      6 C          14.0076   38.1437   11.4107 C.3     1  UNL1        0.0342
      7 N          13.9190   41.0341    9.1186 N.ar    1  UNL1       -0.3451
      8 H          13.4686   41.7416    8.6030 H       1  UNL1        0.1668
      9 C          10.9836   41.0445    9.8756 C.2     1  UNL1        0.3054
     10 O          11.3553   42.1508    9.3985 O.2     1  UNL1       -0.2525
     11 N          11.9344   40.0092   10.1431 N.am    1  UNL1       -0.2554
     12 N           9.6000   40.8050   10.1542 N.am    1  UNL1       -0.2903
     13 H          11.5929   39.1630   10.5127 H       1  UNL1        0.1578
     14 H           9.3522   39.9219   10.5119 H       1  UNL1        0.1509
     15 C           8.5301   41.7763    9.9461 C.3     1  UNL1        0.0730
     16 C           8.4901   42.2492    8.4871 C.3     1  UNL1        0.0196
     17 C           7.6230   43.4978    8.3594 C.3     1  UNL1        0.0017
     18 C           8.1645   44.6637    9.2001 C.3     1  UNL1        0.0001
     19 C           9.0800   44.2261   10.3502 C.3     1  UNL1        0.0017
     20 C           8.6037   42.9166   10.9763 C.3     1  UNL1        0.0196
     21 C          16.8362   39.1253   10.3323 C.2     1  UNL1        0.3421
     22 O          17.4665   39.5186   11.3517 O.2     1  UNL1       -0.2449
     23 O          17.3859   38.1437    9.5050 O.3     1  UNL1       -0.4454
     24 C          16.1411   36.2542    8.7147 C.3     1  UNL1        0.0513
     25 C          17.1524   36.7601    9.7217 C.3     1  UNL1        0.2089
@<TRIPOS>BOND
     1    24    25    1
     2    25    23    1
     3    21    23    1
     4    21     1    1
     5     2     7   ar
     6     3     2    1
     7     4    11    1
     8     9    12   am
     9    15    12    1
    10    15    16    1
    11    16    17    1
    12    17    18    1
    13    18    19    1
    14    19    20    1
    15    20    15    1
    16     5     1   ar
    17     6     5    1
    18     7     4   ar
    19    11     9   am
    20    21    22    2
    21     1     2   ar
    22     4     5   ar
    23     9    10    2
    24     7     8    1
    25    11    13    1
    26    12    14    1
@<TRIPOS>MOLECULE
MolPort-004-160-381 CSC027240159 CSSS00027240159 ChemDiv-D039-0048 MCULE-6137790506 PubChem-16309714 Z198974558 ZINC000008338083 ZINC08338083
 25 26 0 0 0
SMALL
GASTEIGER

@<TRIPOS>ATOM
      1 C          12.4378   40.3575    8.6125 C.ar    1  UNL1        0.0857
      2 C          12.1463   39.1707    9.2749 C.ar    1  UNL1        0.0408
      3 C          13.1385   38.2098    9.8333 C.3     1  UNL1        0.0500
      4 C          10.2563   40.0361    8.7539 C.ar    1  UNL1        0.1085
      5 C          11.2130   40.9077    8.2808 C.ar    1  UNL1        0.0153
      6 C          10.9549   42.1853    7.5558 C.3     1  UNL1        0.0342
      7 N          10.8155   38.9711    9.3631 N.ar    1  UNL1       -0.3451
      8 H          10.3516   38.2107    9.7825 H       1  UNL1        0.1668
      9 C           8.0389   41.0359    9.4856 C.2     1  UNL1        0.3054
     10 O           8.5557   41.6416   10.4632 O.2     1  UNL1       -0.2525
     11 N           8.8443   40.2342    8.6161 N.am    1  UNL1       -0.2554
     12 N           6.6351   41.1442    9.2275 N.am    1  UNL1       -0.2903
     13 H           8.3934   39.7841    7.8656 H       1  UNL1        0.1578
     14 H           6.2763   40.6668    8.4447 H       1  UNL1        0.1509
     15 C           5.6971   41.9117   10.0415 C.3     1  UNL1        0.0730
     16 C           5.0527   41.0305   11.1195 C.3     1  UNL1        0.0196
     17 C           3.8400   41.7333   11.7217 C.3     1  UNL1        0.0017
     18 C           2.7608   42.0246   10.6681 C.3     1  UNL1        0.0001
     19 C           3.2915   42.0570    9.2295 C.3     1  UNL1        0.0017
     20 C           4.6884   42.6719    9.1629 C.3     1  UNL1        0.0196
     21 C          13.7726   40.9189    8.3199 C.2     1  UNL1        0.3421
     22 O          14.6749   40.8960    9.2011 O.2     1  UNL1       -0.2449
     23 O          14.0332   41.4744    7.0655 O.3     1  UNL1       -0.4454
     24 C          14.1181   43.5496    5.8694 C.3     1  UNL1        0.0513
     25 C          14.7776   42.6739    6.9140 C.3     1  UNL1        0.2089
@<TRIPOS>BOND
     1    24    25    1
     2    25    23    1
     3    21    23    1
     4    21     1    1
     5     2     7   ar
     6     3     2    1
     7     4    11    1
     8     9    12   am
     9    15    12    1
    10    15    16    1
    11    16    17    1
    12    17    18    1
    13    18    19    1
    14    19    20    1
    15    20    15    1
    16     5     1   ar
    17     6     5    1
    18     7     4   ar
    19    11     9   am
    20    21    22    2
    21     1     2   ar
    22     4     5   ar
    23     9    10    2
    24     7     8    1
    25    11    13    1
    26    12    14    1
@<TRIPOS>MOLECULE
MolPort-004-160-381 CSC027240159 CSSS00027240159 ChemDiv-D039-0048 MCULE-6137790506 PubChem-16309714 Z198974558 ZINC000008338083 ZINC08338083
 25 26 0 0 0
SMALL
GASTEIGER

@<TRIPOS>ATOM
      1 C          11.1064   41.0439    8.3425 C.ar    1  UNL1        0.0857
      2 C          10.6885   40.7333    9.6313 C.ar    1  UNL1        0.0408
      3 C          11.5716   40.4867   10.8057 C.3     1  UNL1        0.0500
      4 C           8.9023   40.9515    8.4676 C.ar    1  UNL1        0.1085
      5 C           9.9478   41.1825    7.6002 C.ar    1  UNL1        0.0153
      6 C           9.8289   41.5135    6.1507 C.3     1  UNL1        0.0342
      7 N           9.3435   40.6761    9.7116 N.ar    1  UNL1       -0.3451
      8 H           8.8002   40.4760   10.5079 H       1  UNL1        0.1668
      9 C           6.4324   41.2063    9.0030 C.2     1  UNL1        0.3054
     10 O           6.6457   41.3729   10.2344 O.2     1  UNL1       -0.2525
     11 N           7.5195   40.9971    8.0965 N.am    1  UNL1       -0.2554
     12 N           5.0959   41.2276    8.4908 N.am    1  UNL1       -0.2903
     13 H           7.3003   40.8750    7.1445 H       1  UNL1        0.1578
     14 H           4.9764   41.1084    7.5209 H       1  UNL1        0.1509
     15 C           3.8973   41.4135    9.3033 C.3     1  UNL1        0.0730
     16 C           3.9959   42.6903   10.1483 C.3     1  UNL1        0.0196
     17 C           2.9235   42.6907   11.2332 C.3     1  UNL1        0.0017
     18 C           3.0727   41.4993   12.1912 C.3     1  UNL1        0.0001
     19 C           3.8618   40.3241   11.6010 C.3     1  UNL1        0.0017
     20 C           3.5696   40.1464   10.1121 C.3     1  UNL1        0.0196
     21 C          12.4944   41.1949    7.8598 C.2     1  UNL1        0.3421
     22 O          13.2791   40.2073    7.8730 O.2     1  UNL1       -0.2449
     23 O          12.9355   42.4331    7.3883 O.3     1  UNL1       -0.4454
     24 C          14.0658   44.0076    5.9784 C.3     1  UNL1        0.0513
     25 C          13.6751   42.5590    6.1829 C.3     1  UNL1        0.2089
@<TRIPOS>BOND
     1    24    25    1
     2    25    23    1
     3    21    23    1
     4    21     1    1
     5     2     7   ar
     6     3     2    1
     7     4    11    1
     8     9    12   am
     9    15    12    1
    10    15    16    1
    11    16    17    1
    12    17    18    1
    13    18    19    1
    14    19    20    1
    15    20    15    1
    16     5     1   ar
    17     6     5    1
    18     7     4   ar
    19    11     9   am
    20    21    22    2
    21     1     2   ar
    22     4     5   ar
    23     9    10    2
    24     7     8    1
    25    11    13    1
    26    12    14    1
