@<TRIPOS>MOLECULE
MolPort-039-109-620 299761846 CSSS00159666548 MCULE-1474929588 PubChem-118771978 ZINC000299761846
 27 30 0 0 0
SMALL
GASTEIGER

@<TRIPOS>ATOM
      1 C          11.1484   41.7660    8.1171 C.2     1  UNL1        0.3080
      2 N          12.5228   41.3840    8.3101 N.am    1  UNL1       -0.2583
      3 N          10.2655   41.8546    9.2465 N.am    1  UNL1       -0.2680
      4 O          10.7243   42.0169    6.9561 O.2     1  UNL1       -0.2522
      5 H          10.6513   41.6321   10.1245 H       1  UNL1        0.1564
      6 C           8.8822   42.2323    9.2322 C.ar    1  UNL1        0.0546
      7 C           8.0334   41.7120   10.2148 C.ar    1  UNL1        0.0516
      8 C           6.6770   42.0523   10.2419 C.ar    1  UNL1        0.1396
      9 C           6.1669   42.9288    9.2711 C.ar    1  UNL1        0.0370
     10 C           7.0072   43.4535    8.2865 C.ar    1  UNL1        0.0044
     11 C           8.3602   43.1065    8.2672 C.ar    1  UNL1        0.0149
     12 O           5.8633   41.5111   11.2432 O.3     1  UNL1       -0.4791
     13 C           4.6743   40.7774   10.9701 C.3     1  UNL1        0.1659
     14 C           4.2926   40.9633    9.5137 C.3     1  UNL1        0.0435
     15 C           2.8136   41.2746    9.5021 C.3     1  UNL1        0.0038
     16 C           2.5424   41.9438   10.8275 C.3     1  UNL1        0.0038
     17 C           3.5192   41.3187   11.8001 C.3     1  UNL1        0.0435
     18 C          12.9943   40.9827    9.6366 C.3     1  UNL1        0.0774
     19 C          12.3748   39.6574   10.0535 C.3     1  UNL1        0.0216
     20 C          13.7922   39.6928    9.5342 C.3     1  UNL1        0.0216
     21 C          13.3766   41.1260    7.1515 C.3     1  UNL1        0.1588
     22 C          16.0067   42.3351    8.1773 C.3     1  UNL1        0.1317
     23 C          15.3887   44.0283    6.4598 C.ar    1  UNL1        0.0978
     24 C          14.3378   44.1957    5.5726 C.ar    1  UNL1        0.1189
     25 C          14.0055   42.3945    6.6672 C.ar    1  UNL1        0.1408
     26 N          15.1601   42.8929    7.1366 N.ar    1  UNL1       -0.3103
     27 N          13.4697   43.1684    5.7059 N.ar    1  UNL1       -0.2276
@<TRIPOS>BOND
     1    22    26    1
     2    24    27   ar
     3    25    26   ar
     4    21    25    1
     5    21     2    1
     6    18     2    1
     7    18    19    1
     8    19    20    1
     9    20    18    1
    10     1     3   am
    11     7     8   ar
    12     8    12    1
    13    13    12    1
    14    13    14    1
    15    14    15    1
    16    15    16    1
    17    16    17    1
    18    17    13    1
    19     9    10   ar
    20    11     6   ar
    21    26    23   ar
    22     2     1   am
    23     3     6    1
    24    23    24   ar
    25    25    27   ar
    26     1     4    2
    27     6     7   ar
    28     8     9   ar
    29    10    11   ar
    30     3     5    1
@<TRIPOS>MOLECULE
MolPort-039-109-620 299761846 CSSS00159666548 MCULE-1474929588 PubChem-118771978 ZINC000299761846
 27 30 0 0 0
SMALL
GASTEIGER

@<TRIPOS>ATOM
      1 C          12.5107   41.4718    8.9555 C.2     1  UNL1        0.3080
      2 N          13.7566   41.0153    8.3973 N.am    1  UNL1       -0.2583
      3 N          11.8444   40.6853    9.9556 N.am    1  UNL1       -0.2680
      4 O          12.0071   42.5585    8.5603 O.2     1  UNL1       -0.2522
      5 H          12.2792   39.8399   10.2117 H       1  UNL1        0.1564
      6 C          10.6137   40.9994   10.6213 C.ar    1  UNL1        0.0546
      7 C           9.4645   41.2001    9.8494 C.ar    1  UNL1        0.0516
      8 C           8.2412   41.5077   10.4539 C.ar    1  UNL1        0.1396
      9 C           8.1706   41.6123   11.8521 C.ar    1  UNL1        0.0370
     10 C           9.3128   41.4131   12.6307 C.ar    1  UNL1        0.0044
     11 C          10.5302   41.1076   12.0174 C.ar    1  UNL1        0.0149
     12 O           7.1157   41.6988    9.6450 O.3     1  UNL1       -0.4791
     13 C           7.1053   42.5647    8.5151 C.3     1  UNL1        0.1659
     14 C           7.6585   43.9194    8.9154 C.3     1  UNL1        0.0435
     15 C           6.7025   44.9474    8.3550 C.3     1  UNL1        0.0038
     16 C           5.3637   44.2525    8.3043 C.3     1  UNL1        0.0038
     17 C           5.6773   42.7953    8.0416 C.3     1  UNL1        0.0435
     18 C          14.2903   39.7034    8.7673 C.3     1  UNL1        0.0774
     19 C          15.3224   39.8320    9.8774 C.3     1  UNL1        0.0216
     20 C          13.9195   39.3806   10.2059 C.3     1  UNL1        0.0216
     21 C          14.3479   41.7214    7.2618 C.3     1  UNL1        0.1588
     22 C          15.1807   44.4969    6.2447 C.3     1  UNL1        0.1317
     23 C          17.0362   44.0425    7.8413 C.ar    1  UNL1        0.0978
     24 C          17.3777   42.9988    8.6860 C.ar    1  UNL1        0.1189
     25 C          15.5629   42.4831    7.6893 C.ar    1  UNL1        0.1408
     26 N          15.8952   43.6981    7.2257 N.ar    1  UNL1       -0.3103
     27 N          16.4510   42.0200    8.5876 N.ar    1  UNL1       -0.2276
@<TRIPOS>BOND
     1    22    26    1
     2    24    27   ar
     3    25    26   ar
     4    21    25    1
     5    21     2    1
     6    18     2    1
     7    18    19    1
     8    19    20    1
     9    20    18    1
    10     1     3   am
    11     7     8   ar
    12     8    12    1
    13    13    12    1
    14    13    14    1
    15    14    15    1
    16    15    16    1
    17    16    17    1
    18    17    13    1
    19     9    10   ar
    20    11     6   ar
    21    26    23   ar
    22     2     1   am
    23     3     6    1
    24    23    24   ar
    25    25    27   ar
    26     1     4    2
    27     6     7   ar
    28     8     9   ar
    29    10    11   ar
    30     3     5    1
@<TRIPOS>MOLECULE
MolPort-039-109-620 299761846 CSSS00159666548 MCULE-1474929588 PubChem-118771978 ZINC000299761846
 27 30 0 0 0
SMALL
GASTEIGER

@<TRIPOS>ATOM
      1 C          12.8323   38.5606    9.2643 C.2     1  UNL1        0.3080
      2 N          12.9145   37.3951   10.1051 N.am    1  UNL1       -0.2583
      3 N          11.8864   38.5978    8.1842 N.am    1  UNL1       -0.2680
      4 O          13.5949   39.5424    9.4769 O.2     1  UNL1       -0.2522
      5 H          11.3298   37.7954    8.0595 H       1  UNL1        0.1564
      6 C          11.6658   39.6787    7.2679 C.ar    1  UNL1        0.0546
      7 C          12.4985   40.8005    7.3391 C.ar    1  UNL1        0.0516
      8 C          12.3223   41.8788    6.4659 C.ar    1  UNL1        0.1396
      9 C          11.2983   41.8288    5.5068 C.ar    1  UNL1        0.0370
     10 C          10.4626   40.7125    5.4282 C.ar    1  UNL1        0.0044
     11 C          10.6457   39.6411    6.3057 C.ar    1  UNL1        0.0149
     12 O          13.1784   42.9806    6.5697 O.3     1  UNL1       -0.4791
     13 C          14.5223   42.9710    6.1001 C.3     1  UNL1        0.1659
     14 C          15.4681   42.9157    7.2850 C.3     1  UNL1        0.0435
     15 C          16.5268   43.9635    7.0284 C.3     1  UNL1        0.0038
     16 C          15.8449   45.0130    6.1849 C.3     1  UNL1        0.0038
     17 C          14.8282   44.2612    5.3530 C.3     1  UNL1        0.0435
     18 C          12.1135   36.2091    9.7969 C.3     1  UNL1        0.0774
     19 C          12.6862   34.9763   10.4798 C.3     1  UNL1        0.0216
     20 C          11.4797   35.6677   11.0682 C.3     1  UNL1        0.0216
     21 C          13.9875   37.2831   11.0919 C.3     1  UNL1        0.1588
     22 C          16.4601   39.0387   11.5778 C.3     1  UNL1        0.1317
     23 C          17.3636   37.4780    9.8613 C.ar    1  UNL1        0.0978
     24 C          16.8617   36.4068    9.1399 C.ar    1  UNL1        0.1189
     25 C          15.3135   37.1359   10.4144 C.ar    1  UNL1        0.1408
     26 N          16.3760   37.9203   10.6541 N.ar    1  UNL1       -0.3103
     27 N          15.5733   36.1949    9.4886 N.ar    1  UNL1       -0.2276
@<TRIPOS>BOND
     1    22    26    1
     2    24    27   ar
     3    25    26   ar
     4    21    25    1
     5    21     2    1
     6    18     2    1
     7    18    19    1
     8    19    20    1
     9    20    18    1
    10     1     3   am
    11     7     8   ar
    12     8    12    1
    13    13    12    1
    14    13    14    1
    15    14    15    1
    16    15    16    1
    17    16    17    1
    18    17    13    1
    19     9    10   ar
    20    11     6   ar
    21    26    23   ar
    22     2     1   am
    23     3     6    1
    24    23    24   ar
    25    25    27   ar
    26     1     4    2
    27     6     7   ar
    28     8     9   ar
    29    10    11   ar
    30     3     5    1
@<TRIPOS>MOLECULE
MolPort-039-109-620 299761846 CSSS00159666548 MCULE-1474929588 PubChem-118771978 ZINC000299761846
 27 30 0 0 0
SMALL
GASTEIGER

@<TRIPOS>ATOM
      1 C          10.0662   40.9534    9.4170 C.2     1  UNL1        0.3080
      2 N          11.0612   39.9456    9.6746 N.am    1  UNL1       -0.2583
      3 N           9.2044   40.8317    8.2744 N.am    1  UNL1       -0.2680
      4 O           9.9586   41.9416   10.1933 O.2     1  UNL1       -0.2522
      5 H           9.3470   40.0465    7.6979 H       1  UNL1        0.1564
      6 C           8.1585   41.7315    7.8835 C.ar    1  UNL1        0.0546
      7 C           7.2019   42.1035    8.8339 C.ar    1  UNL1        0.0516
      8 C           6.1637   42.9792    8.4995 C.ar    1  UNL1        0.1396
      9 C           6.0869   43.4901    7.1942 C.ar    1  UNL1        0.0370
     10 C           7.0378   43.1246    6.2388 C.ar    1  UNL1        0.0044
     11 C           8.0701   42.2483    6.5823 C.ar    1  UNL1        0.0149
     12 O           5.2291   43.3270    9.4809 O.3     1  UNL1       -0.4791
     13 C           4.0117   42.6178    9.6846 C.3     1  UNL1        0.1659
     14 C           3.6722   42.6169   11.1632 C.3     1  UNL1        0.0435
     15 C           3.2998   41.1935   11.5092 C.3     1  UNL1        0.0038
     16 C           4.0710   40.3374   10.5345 C.3     1  UNL1        0.0038
     17 C           4.1742   41.1625    9.2698 C.3     1  UNL1        0.0435
     18 C          11.2679   38.8562    8.7189 C.3     1  UNL1        0.0774
     19 C          11.2194   37.5060    9.4179 C.3     1  UNL1        0.0216
     20 C          10.0196   37.9921    8.6407 C.3     1  UNL1        0.0216
     21 C          12.0497   40.1517   10.7321 C.3     1  UNL1        0.1588
     22 C          14.5191   38.6758   11.8070 C.3     1  UNL1        0.1317
     23 C          15.5329   39.8710    9.8725 C.ar    1  UNL1        0.0978
     24 C          15.0710   40.7408    8.8980 C.ar    1  UNL1        0.1189
     25 C          13.4298   40.2192   10.1578 C.ar    1  UNL1        0.1408
     26 N          14.4874   39.5568   10.6521 N.ar    1  UNL1       -0.3103
     27 N          13.7497   40.9587    9.0803 N.ar    1  UNL1       -0.2276
@<TRIPOS>BOND
     1    22    26    1
     2    24    27   ar
     3    25    26   ar
     4    21    25    1
     5    21     2    1
     6    18     2    1
     7    18    19    1
     8    19    20    1
     9    20    18    1
    10     1     3   am
    11     7     8   ar
    12     8    12    1
    13    13    12    1
    14    13    14    1
    15    14    15    1
    16    15    16    1
    17    16    17    1
    18    17    13    1
    19     9    10   ar
    20    11     6   ar
    21    26    23   ar
    22     2     1   am
    23     3     6    1
    24    23    24   ar
    25    25    27   ar
    26     1     4    2
    27     6     7   ar
    28     8     9   ar
    29    10    11   ar
    30     3     5    1
@<TRIPOS>MOLECULE
MolPort-039-109-620 299761846 CSSS00159666548 MCULE-1474929588 PubChem-118771978 ZINC000299761846
 27 30 0 0 0
SMALL
GASTEIGER

@<TRIPOS>ATOM
      1 C          12.0168   42.1031    7.5008 C.2     1  UNL1        0.3080
      2 N          10.7007   41.7325    7.0506 N.am    1  UNL1       -0.2583
      3 N          13.0163   42.4914    6.5454 N.am    1  UNL1       -0.2680
      4 O          12.2878   42.0806    8.7324 O.2     1  UNL1       -0.2522
      5 H          12.7490   42.4745    5.5980 H       1  UNL1        0.1564
      6 C          14.3621   42.9013    6.8235 C.ar    1  UNL1        0.0546
      7 C          15.2072   42.0169    7.5020 C.ar    1  UNL1        0.0516
      8 C          16.5281   42.3719    7.7948 C.ar    1  UNL1        0.1396
      9 C          17.0072   43.6306    7.3986 C.ar    1  UNL1        0.0370
     10 C          16.1707   44.5198    6.7202 C.ar    1  UNL1        0.0044
     11 C          14.8526   44.1564    6.4337 C.ar    1  UNL1        0.0149
     12 O          17.3403   41.4569    8.4734 O.3     1  UNL1       -0.4791
     13 C          16.9746   40.8587    9.7124 C.3     1  UNL1        0.1659
     14 C          17.9349   39.7270   10.0266 C.3     1  UNL1        0.0435
     15 C          17.0801   38.5528   10.4449 C.3     1  UNL1        0.0038
     16 C          15.7690   38.7438    9.7221 C.3     1  UNL1        0.0038
     17 C          15.5869   40.2422    9.6102 C.3     1  UNL1        0.0435
     18 C          10.4113   41.6475    5.6181 C.3     1  UNL1        0.0774
     19 C          10.9441   40.3478    5.0342 C.3     1  UNL1        0.0216
     20 C           9.4732   40.4821    5.3477 C.3     1  UNL1        0.0216
     21 C           9.7374   41.1738    7.9980 C.3     1  UNL1        0.1588
     22 C          10.1958   40.9375   11.0255 C.3     1  UNL1        0.1317
     23 C          11.0411   38.7171   10.2817 C.ar    1  UNL1        0.0978
     24 C          11.1752   38.0696    9.0641 C.ar    1  UNL1        0.1189
     25 C          10.3198   39.9914    8.7064 C.ar    1  UNL1        0.1408
     26 N          10.5031   39.9207   10.0343 N.ar    1  UNL1       -0.3103
     27 N          10.7223   38.8730    8.0762 N.ar    1  UNL1       -0.2276
@<TRIPOS>BOND
     1    22    26    1
     2    24    27   ar
     3    25    26   ar
     4    21    25    1
     5    21     2    1
     6    18     2    1
     7    18    19    1
     8    19    20    1
     9    20    18    1
    10     1     3   am
    11     7     8   ar
    12     8    12    1
    13    13    12    1
    14    13    14    1
    15    14    15    1
    16    15    16    1
    17    16    17    1
    18    17    13    1
    19     9    10   ar
    20    11     6   ar
    21    26    23   ar
    22     2     1   am
    23     3     6    1
    24    23    24   ar
    25    25    27   ar
    26     1     4    2
    27     6     7   ar
    28     8     9   ar
    29    10    11   ar
    30     3     5    1
@<TRIPOS>MOLECULE
MolPort-039-109-620 299761846 CSSS00159666548 MCULE-1474929588 PubChem-118771978 ZINC000299761846
 27 30 0 0 0
SMALL
GASTEIGER

@<TRIPOS>ATOM
      1 C          11.5158   41.5890    6.9740 C.2     1  UNL1        0.3080
      2 N          10.2798   41.0410    6.4798 N.am    1  UNL1       -0.2583
      3 N          12.4765   42.1303    6.0537 N.am    1  UNL1       -0.2680
      4 O          11.7519   41.5870    8.2129 O.2     1  UNL1       -0.2522
      5 H          12.2416   42.0895    5.0986 H       1  UNL1        0.1564
      6 C          13.7412   42.7239    6.3772 C.ar    1  UNL1        0.0546
      7 C          14.6567   41.9846    7.1335 C.ar    1  UNL1        0.0516
      8 C          15.9030   42.5212    7.4728 C.ar    1  UNL1        0.1396
      9 C          16.2353   43.8163    7.0448 C.ar    1  UNL1        0.0370
     10 C          15.3276   44.5615    6.2889 C.ar    1  UNL1        0.0044
     11 C          14.0849   44.0172    5.9562 C.ar    1  UNL1        0.0149
     12 O          16.7900   41.7471    8.2290 O.3     1  UNL1       -0.4791
     13 C          16.4498   41.1785    9.4889 C.3     1  UNL1        0.1659
     14 C          17.5196   40.1829    9.8960 C.3     1  UNL1        0.0435
     15 C          16.7882   38.9426   10.3557 C.3     1  UNL1        0.0038
     16 C          15.4907   38.9431    9.5846 C.3     1  UNL1        0.0038
     17 C          15.1450   40.4025    9.3814 C.3     1  UNL1        0.0435
     18 C          10.0468   40.9370    5.0383 C.3     1  UNL1        0.0774
     19 C          10.7941   39.7481    4.4534 C.3     1  UNL1        0.0216
     20 C           9.3125   39.6434    4.7246 C.3     1  UNL1        0.0216
     21 C           9.3797   40.3363    7.3913 C.3     1  UNL1        0.1588
     22 C           6.9239   41.8678    6.3640 C.3     1  UNL1        0.1317
     23 C           7.0320   42.7310    8.6968 C.ar    1  UNL1        0.0978
     24 C           7.8607   42.5247    9.7878 C.ar    1  UNL1        0.1189
     25 C           8.5605   41.3090    8.1800 C.ar    1  UNL1        0.1408
     26 N           7.4891   41.9591    7.6994 N.ar    1  UNL1       -0.3103
     27 N           8.8207   41.6318    9.4600 N.ar    1  UNL1       -0.2276
@<TRIPOS>BOND
     1    22    26    1
     2    24    27   ar
     3    25    26   ar
     4    21    25    1
     5    21     2    1
     6    18     2    1
     7    18    19    1
     8    19    20    1
     9    20    18    1
    10     1     3   am
    11     7     8   ar
    12     8    12    1
    13    13    12    1
    14    13    14    1
    15    14    15    1
    16    15    16    1
    17    16    17    1
    18    17    13    1
    19     9    10   ar
    20    11     6   ar
    21    26    23   ar
    22     2     1   am
    23     3     6    1
    24    23    24   ar
    25    25    27   ar
    26     1     4    2
    27     6     7   ar
    28     8     9   ar
    29    10    11   ar
    30     3     5    1
@<TRIPOS>MOLECULE
MolPort-039-109-620 299761846 CSSS00159666548 MCULE-1474929588 PubChem-118771978 ZINC000299761846
 27 30 0 0 0
SMALL
GASTEIGER

@<TRIPOS>ATOM
      1 C          11.4232   39.9054    8.3062 C.2     1  UNL1        0.3080
      2 N          12.7366   39.5892    8.8034 N.am    1  UNL1       -0.2583
      3 N          10.7415   41.0767    8.7817 N.am    1  UNL1       -0.2680
      4 O          10.8748   39.1496    7.4585 O.2     1  UNL1       -0.2522
      5 H          11.2148   41.6182    9.4541 H       1  UNL1        0.1564
      6 C           9.4453   41.5420    8.3821 C.ar    1  UNL1        0.0546
      7 C           8.4326   41.6180    9.3441 C.ar    1  UNL1        0.0516
      8 C           7.1527   42.0666    9.0018 C.ar    1  UNL1        0.1396
      9 C           6.8872   42.4463    7.6766 C.ar    1  UNL1        0.0370
     10 C           7.8923   42.3740    6.7096 C.ar    1  UNL1        0.0044
     11 C           9.1670   41.9235    7.0611 C.ar    1  UNL1        0.0149
     12 O           6.1694   42.1292    9.9952 O.3     1  UNL1       -0.4791
     13 C           4.9114   41.4713    9.8897 C.3     1  UNL1        0.1659
     14 C           3.8086   42.5087    9.7924 C.3     1  UNL1        0.0435
     15 C           2.7352   42.0751   10.7640 C.3     1  UNL1        0.0038
     16 C           3.4657   41.3116   11.8418 C.3     1  UNL1        0.0038
     17 C           4.6374   40.6547   11.1444 C.3     1  UNL1        0.0435
     18 C          13.3329   40.3971    9.8686 C.3     1  UNL1        0.0774
     19 C          13.1882   39.7078   11.2169 C.3     1  UNL1        0.0216
     20 C          14.5079   39.6552   10.4852 C.3     1  UNL1        0.0216
     21 C          13.3597   38.3133    8.4547 C.3     1  UNL1        0.1588
     22 C          14.7820   35.6619    9.0702 C.3     1  UNL1        0.1317
     23 C          12.6850   35.3452   10.3743 C.ar    1  UNL1        0.0978
     24 C          11.5397   36.0921   10.5979 C.ar    1  UNL1        0.1189
     25 C          12.8272   37.2132    9.3180 C.ar    1  UNL1        0.1408
     26 N          13.4787   36.0667    9.5688 N.ar    1  UNL1       -0.3103
     27 N          11.6313   37.2647    9.9321 N.ar    1  UNL1       -0.2276
@<TRIPOS>BOND
     1    22    26    1
     2    24    27   ar
     3    25    26   ar
     4    21    25    1
     5    21     2    1
     6    18     2    1
     7    18    19    1
     8    19    20    1
     9    20    18    1
    10     1     3   am
    11     7     8   ar
    12     8    12    1
    13    13    12    1
    14    13    14    1
    15    14    15    1
    16    15    16    1
    17    16    17    1
    18    17    13    1
    19     9    10   ar
    20    11     6   ar
    21    26    23   ar
    22     2     1   am
    23     3     6    1
    24    23    24   ar
    25    25    27   ar
    26     1     4    2
    27     6     7   ar
    28     8     9   ar
    29    10    11   ar
    30     3     5    1
@<TRIPOS>MOLECULE
MolPort-039-109-620 299761846 CSSS00159666548 MCULE-1474929588 PubChem-118771978 ZINC000299761846
 27 30 0 0 0
SMALL
GASTEIGER

@<TRIPOS>ATOM
      1 C          12.3596   39.9931    8.4033 C.2     1  UNL1        0.3080
      2 N          13.4775   40.1413    9.2981 N.am    1  UNL1       -0.2583
      3 N          11.0427   39.7768    8.9341 N.am    1  UNL1       -0.2680
      4 O          12.5424   40.0491    7.1567 O.2     1  UNL1       -0.2522
      5 H          10.9665   39.7276    9.9144 H       1  UNL1        0.1564
      6 C           9.8268   39.6249    8.1891 C.ar    1  UNL1        0.0546
      7 C           8.8781   40.6520    8.2346 C.ar    1  UNL1        0.0516
      8 C           7.6779   40.5493    7.5238 C.ar    1  UNL1        0.1396
      9 C           7.4282   39.4013    6.7552 C.ar    1  UNL1        0.0370
     10 C           8.3699   38.3712    6.7036 C.ar    1  UNL1        0.0044
     11 C           9.5652   38.4826    7.4180 C.ar    1  UNL1        0.0149
     12 O           6.7571   41.6003    7.5952 O.3     1  UNL1       -0.4791
     13 C           7.1038   42.9589    7.3492 C.3     1  UNL1        0.1659
     14 C           7.4166   43.6439    8.6662 C.3     1  UNL1        0.0435
     15 C           6.6715   44.9587    8.6449 C.3     1  UNL1        0.0038
     16 C           5.4702   44.7154    7.7641 C.3     1  UNL1        0.0038
     17 C           5.9244   43.7008    6.7369 C.3     1  UNL1        0.0435
     18 C          13.2928   39.9657   10.7396 C.3     1  UNL1        0.0774
     19 C          13.3039   38.4907   11.1114 C.3     1  UNL1        0.0216
     20 C          14.5344   39.3332   11.3474 C.3     1  UNL1        0.0216
     21 C          14.8373   40.1885    8.7630 C.3     1  UNL1        0.1588
     22 C          17.5103   41.6987    8.8428 C.3     1  UNL1        0.1317
     23 C          16.1432   43.3013    7.5157 C.ar    1  UNL1        0.0978
     24 C          14.8350   43.3418    7.0612 C.ar    1  UNL1        0.1189
     25 C          15.1110   41.5192    8.1356 C.ar    1  UNL1        0.1408
     26 N          16.2947   42.1500    8.1873 N.ar    1  UNL1       -0.3103
     27 N          14.1886   42.2216    7.4531 N.ar    1  UNL1       -0.2276
@<TRIPOS>BOND
     1    22    26    1
     2    24    27   ar
     3    25    26   ar
     4    21    25    1
     5    21     2    1
     6    18     2    1
     7    18    19    1
     8    19    20    1
     9    20    18    1
    10     1     3   am
    11     7     8   ar
    12     8    12    1
    13    13    12    1
    14    13    14    1
    15    14    15    1
    16    15    16    1
    17    16    17    1
    18    17    13    1
    19     9    10   ar
    20    11     6   ar
    21    26    23   ar
    22     2     1   am
    23     3     6    1
    24    23    24   ar
    25    25    27   ar
    26     1     4    2
    27     6     7   ar
    28     8     9   ar
    29    10    11   ar
    30     3     5    1
@<TRIPOS>MOLECULE
MolPort-039-109-620 299761846 CSSS00159666548 MCULE-1474929588 PubChem-118771978 ZINC000299761846
 27 30 0 0 0
SMALL
GASTEIGER

@<TRIPOS>ATOM
      1 C          12.4552   40.9206    9.7613 C.2     1  UNL1        0.3080
      2 N          13.5147   40.0460   10.1911 N.am    1  UNL1       -0.2583
      3 N          11.3929   41.2563   10.6679 N.am    1  UNL1       -0.2680
      4 O          12.4618   41.3846    8.5885 O.2     1  UNL1       -0.2522
      5 H          11.4354   40.8509   11.5640 H       1  UNL1        0.1564
      6 C          10.2772   42.1186   10.4075 C.ar    1  UNL1        0.0546
      7 C           8.9923   41.5661   10.3830 C.ar    1  UNL1        0.0516
      8 C           7.8734   42.3677   10.1341 C.ar    1  UNL1        0.1396
      9 C           8.0469   43.7426    9.9095 C.ar    1  UNL1        0.0370
     10 C           9.3260   44.3029    9.9325 C.ar    1  UNL1        0.0044
     11 C          10.4373   43.4937   10.1807 C.ar    1  UNL1        0.0149
     12 O           6.6060   41.7752   10.1204 O.3     1  UNL1       -0.4791
     13 C           5.6576   41.9862    9.0799 C.3     1  UNL1        0.1659
     14 C           4.9288   43.2945    9.3222 C.3     1  UNL1        0.0435
     15 C           3.4590   43.0003    9.1286 C.3     1  UNL1        0.0038
     16 C           3.2990   41.5434    9.4887 C.3     1  UNL1        0.0038
     17 C           4.6050   40.8870    9.0959 C.3     1  UNL1        0.0435
     18 C          13.4560   39.4144   11.5104 C.3     1  UNL1        0.0774
     19 C          13.4708   37.8984   11.3863 C.3     1  UNL1        0.0216
     20 C          14.7341   38.6324   11.7673 C.3     1  UNL1        0.0216
     21 C          14.5003   39.5659    9.2237 C.3     1  UNL1        0.1588
     22 C          17.3547   39.7678   10.3389 C.3     1  UNL1        0.1317
     23 C          17.3081   41.7919    8.8900 C.ar    1  UNL1        0.0978
     24 C          16.3728   42.3915    8.0622 C.ar    1  UNL1        0.1189
     25 C          15.4919   40.6400    8.9042 C.ar    1  UNL1        0.1408
     26 N          16.7348   40.6954    9.4081 N.ar    1  UNL1       -0.3103
     27 N          15.2324   41.6664    8.0740 N.ar    1  UNL1       -0.2276
@<TRIPOS>BOND
     1    22    26    1
     2    24    27   ar
     3    25    26   ar
     4    21    25    1
     5    21     2    1
     6    18     2    1
     7    18    19    1
     8    19    20    1
     9    20    18    1
    10     1     3   am
    11     7     8   ar
    12     8    12    1
    13    13    12    1
    14    13    14    1
    15    14    15    1
    16    15    16    1
    17    16    17    1
    18    17    13    1
    19     9    10   ar
    20    11     6   ar
    21    26    23   ar
    22     2     1   am
    23     3     6    1
    24    23    24   ar
    25    25    27   ar
    26     1     4    2
    27     6     7   ar
    28     8     9   ar
    29    10    11   ar
    30     3     5    1
@<TRIPOS>MOLECULE
MolPort-039-109-620 299761846 CSSS00159666548 MCULE-1474929588 PubChem-118771978 ZINC000299761846
 27 30 0 0 0
SMALL
GASTEIGER

@<TRIPOS>ATOM
      1 C          12.0916   39.7323    9.7006 C.2     1  UNL1        0.3080
      2 N          12.8429   38.7359   10.4181 N.am    1  UNL1       -0.2583
      3 N          11.3407   39.3595    8.5344 N.am    1  UNL1       -0.2680
      4 O          12.0997   40.9297   10.0967 O.2     1  UNL1       -0.2522
      5 H          11.3860   38.4132    8.2665 H       1  UNL1        0.1564
      6 C          10.5322   40.2179    7.7185 C.ar    1  UNL1        0.0546
      7 C           9.2013   40.4388    8.0886 C.ar    1  UNL1        0.0516
      8 C           8.3745   41.2688    7.3246 C.ar    1  UNL1        0.1396
      9 C           8.8917   41.8872    6.1753 C.ar    1  UNL1        0.0370
     10 C          10.2193   41.6728    5.7984 C.ar    1  UNL1        0.0044
     11 C          11.0368   40.8411    6.5674 C.ar    1  UNL1        0.0149
     12 O           7.0501   41.4643    7.7313 O.3     1  UNL1       -0.4791
     13 C           6.6639   42.4508    8.6822 C.3     1  UNL1        0.1659
     14 C           5.2593   42.1536    9.1722 C.3     1  UNL1        0.0435
     15 C           4.5085   43.4643    9.1199 C.3     1  UNL1        0.0038
     16 C           5.1680   44.2511    8.0136 C.3     1  UNL1        0.0038
     17 C           6.6200   43.8242    8.0278 C.3     1  UNL1        0.0435
     18 C          12.9299   37.3687    9.9019 C.3     1  UNL1        0.0774
     19 C          12.5452   36.3598   10.9734 C.3     1  UNL1        0.0216
     20 C          11.5512   36.7281    9.8981 C.3     1  UNL1        0.0216
     21 C          13.7421   39.1394   11.4980 C.3     1  UNL1        0.1588
     22 C          15.5928   40.4107    9.4026 C.3     1  UNL1        0.1317
     23 C          17.1021   38.6489   10.3062 C.ar    1  UNL1        0.0978
     24 C          16.9981   37.6606   11.2715 C.ar    1  UNL1        0.1189
     25 C          15.1468   38.7189   11.1991 C.ar    1  UNL1        0.1408
     26 N          15.9299   39.3005   10.2770 N.ar    1  UNL1       -0.3103
     27 N          15.7683   37.7061   11.8301 N.ar    1  UNL1       -0.2276
@<TRIPOS>BOND
     1    22    26    1
     2    24    27   ar
     3    25    26   ar
     4    21    25    1
     5    21     2    1
     6    18     2    1
     7    18    19    1
     8    19    20    1
     9    20    18    1
    10     1     3   am
    11     7     8   ar
    12     8    12    1
    13    13    12    1
    14    13    14    1
    15    14    15    1
    16    15    16    1
    17    16    17    1
    18    17    13    1
    19     9    10   ar
    20    11     6   ar
    21    26    23   ar
    22     2     1   am
    23     3     6    1
    24    23    24   ar
    25    25    27   ar
    26     1     4    2
    27     6     7   ar
    28     8     9   ar
    29    10    11   ar
    30     3     5    1
