@<TRIPOS>MOLECULE
MolPort-001-806-469 CSSS00104793216 MCULE-5388989386 PubChem-2809596 ZINC000000118054 ZINC00118054
 24 26 0 0 0
SMALL
GASTEIGER

@<TRIPOS>ATOM
      1 C           8.4329   41.5895   12.1477 C.ar    1  UNL1        0.1725
      2 C           9.7186   41.4841   11.5919 C.ar    1  UNL1        0.0413
      3 C           9.8903   41.3319   10.2163 C.ar    1  UNL1        0.0180
      4 C           8.7791   41.2787    9.3681 C.ar    1  UNL1        0.0535
      5 C           7.4983   41.3868    9.9143 C.ar    1  UNL1        0.0547
      6 C           7.3054   41.5494   11.2908 C.ar    1  UNL1        0.1733
      7 C          10.0350   41.5051    7.1425 C.2     1  UNL1        0.2256
      8 O          11.0500   42.0462    7.6556 O.2     1  UNL1       -0.2748
      9 N           8.9125   41.1185    7.9495 N.am    1  UNL1       -0.2838
     10 H           8.1553   40.6997    7.4799 H       1  UNL1        0.1549
     11 C          10.0075   41.2675    5.6697 C.3     1  UNL1        0.0768
     12 C          11.2806   40.5338    5.2234 C.3     1  UNL1        0.0091
     13 C          11.0596   39.8202    3.8935 C.3     1  UNL1        0.0005
     14 C           9.9595   38.7547    4.0021 C.3     1  UNL1        0.0000
     15 C           8.9121   39.0571    5.0823 C.3     1  UNL1        0.0005
     16 C           8.7066   40.5608    5.2534 C.3     1  UNL1        0.0091
     17 C           9.1412   41.1027   14.4733 C.3     1  UNL1        0.2526
     18 O           8.2719   41.7179   13.5321 O.3     1  UNL1       -0.4684
     19 O           5.9811   41.6535   11.7441 O.3     1  UNL1       -0.4761
     20 C           4.8618   41.0067   11.1504 C.3     1  UNL1        0.1660
     21 C           3.6037   41.2885   11.9590 C.3     1  UNL1        0.0435
     22 C           2.6749   42.0778   11.0602 C.3     1  UNL1        0.0038
     23 C           3.1374   41.7942    9.6513 C.3     1  UNL1        0.0038
     24 C           4.6279   41.5751    9.7645 C.3     1  UNL1        0.0435
@<TRIPOS>BOND
     1    17    18    1
     2     1    18    1
     3     2     3   ar
     4     4     9    1
     5     4     5   ar
     6    11     7    1
     7    11    12    1
     8    12    13    1
     9    13    14    1
    10    14    15    1
    11    15    16    1
    12    16    11    1
    13     6    19    1
    14     6     1   ar
    15    20    19    1
    16    20    21    1
    17    21    22    1
    18    22    23    1
    19    23    24    1
    20    24    20    1
    21     9     7   am
    22     1     2   ar
    23     3     4   ar
    24     7     8    2
    25     5     6   ar
    26     9    10    1
@<TRIPOS>MOLECULE
MolPort-001-806-469 CSSS00104793216 MCULE-5388989386 PubChem-2809596 ZINC000000118054 ZINC00118054
 24 26 0 0 0
SMALL
GASTEIGER

@<TRIPOS>ATOM
      1 C          14.5087   40.2631    9.5455 C.ar    1  UNL1        0.1725
      2 C          13.6461   39.7677   10.5372 C.ar    1  UNL1        0.0413
      3 C          12.3071   40.1557   10.5761 C.ar    1  UNL1        0.0180
      4 C          11.8038   41.0500    9.6254 C.ar    1  UNL1        0.0535
      5 C          12.6556   41.5431    8.6345 C.ar    1  UNL1        0.0547
      6 C          13.9998   41.1586    8.5729 C.ar    1  UNL1        0.1733
      7 C           9.9455   42.7876    9.9562 C.2     1  UNL1        0.2256
      8 O          10.7337   43.7169   10.2744 O.2     1  UNL1       -0.2748
      9 N          10.4351   41.4773    9.6334 N.am    1  UNL1       -0.2838
     10 H           9.7608   40.8017    9.3924 H       1  UNL1        0.1549
     11 C           8.4794   43.0624    9.9184 C.3     1  UNL1        0.0768
     12 C           8.2040   44.3941    9.2050 C.3     1  UNL1        0.0091
     13 C           6.7714   44.4463    8.6838 C.3     1  UNL1        0.0005
     14 C           6.5061   43.3387    7.6541 C.3     1  UNL1        0.0000
     15 C           7.3822   42.0936    7.8477 C.3     1  UNL1        0.0005
     16 C           7.7140   41.8696    9.3216 C.3     1  UNL1        0.0091
     17 C          16.4664   39.1506   10.5835 C.3     1  UNL1        0.2526
     18 O          15.8564   39.8853    9.5306 O.3     1  UNL1       -0.4684
     19 O          14.7751   41.7041    7.5378 O.3     1  UNL1       -0.4761
     20 C          14.8312   43.0850    7.2006 C.3     1  UNL1        0.1660
     21 C          16.2772   43.5585    7.1680 C.3     1  UNL1        0.0435
     22 C          16.5706   43.9672    5.7397 C.3     1  UNL1        0.0038
     23 C          15.2243   44.2318    5.1098 C.3     1  UNL1        0.0038
     24 C          14.2733   43.2862    5.8053 C.3     1  UNL1        0.0435
@<TRIPOS>BOND
     1    17    18    1
     2     1    18    1
     3     2     3   ar
     4     4     9    1
     5     4     5   ar
     6    11     7    1
     7    11    12    1
     8    12    13    1
     9    13    14    1
    10    14    15    1
    11    15    16    1
    12    16    11    1
    13     6    19    1
    14     6     1   ar
    15    20    19    1
    16    20    21    1
    17    21    22    1
    18    22    23    1
    19    23    24    1
    20    24    20    1
    21     9     7   am
    22     1     2   ar
    23     3     4   ar
    24     7     8    2
    25     5     6   ar
    26     9    10    1
@<TRIPOS>MOLECULE
MolPort-001-806-469 CSSS00104793216 MCULE-5388989386 PubChem-2809596 ZINC000000118054 ZINC00118054
 24 26 0 0 0
SMALL
GASTEIGER

@<TRIPOS>ATOM
      1 C          15.5594   42.7759    7.3446 C.ar    1  UNL1        0.1725
      2 C          14.9839   43.5194    6.3009 C.ar    1  UNL1        0.0413
      3 C          13.7076   43.2150    5.8283 C.ar    1  UNL1        0.0180
      4 C          12.9815   42.1582    6.3878 C.ar    1  UNL1        0.0535
      5 C          13.5467   41.4178    7.4284 C.ar    1  UNL1        0.0547
      6 C          14.8220   41.7135    7.9228 C.ar    1  UNL1        0.1733
      7 C          10.5011   41.6032    6.7364 C.2     1  UNL1        0.2256
      8 O          10.5477   41.7219    7.9894 O.2     1  UNL1       -0.2748
      9 N          11.6689   41.8101    5.9276 N.am    1  UNL1       -0.2838
     10 H          11.5568   41.7017    4.9555 H       1  UNL1        0.1549
     11 C           9.2059   41.2394    6.0910 C.3     1  UNL1        0.0768
     12 C           8.7812   39.8235    6.5072 C.3     1  UNL1        0.0091
     13 C           7.2794   39.6296    6.3231 C.3     1  UNL1        0.0005
     14 C           6.4748   40.5999    7.1997 C.3     1  UNL1        0.0000
     15 C           7.2139   41.9085    7.5104 C.3     1  UNL1        0.0005
     16 C           8.1382   42.3121    6.3635 C.3     1  UNL1        0.0091
     17 C          17.7205   43.9689    7.1127 C.3     1  UNL1        0.2526
     18 O          16.8504   43.0754    7.7945 O.3     1  UNL1       -0.4684
     19 O          15.3025   40.9159    8.9731 O.3     1  UNL1       -0.4761
     20 C          14.6767   39.7309    9.4506 C.3     1  UNL1        0.1660
     21 C          15.7086   38.8154   10.0933 C.3     1  UNL1        0.0435
     22 C          15.3405   38.7032   11.5579 C.3     1  UNL1        0.0038
     23 C          13.8814   39.0825   11.6387 C.3     1  UNL1        0.0038
     24 C          13.6762   40.0898   10.5316 C.3     1  UNL1        0.0435
@<TRIPOS>BOND
     1    17    18    1
     2     1    18    1
     3     2     3   ar
     4     4     9    1
     5     4     5   ar
     6    11     7    1
     7    11    12    1
     8    12    13    1
     9    13    14    1
    10    14    15    1
    11    15    16    1
    12    16    11    1
    13     6    19    1
    14     6     1   ar
    15    20    19    1
    16    20    21    1
    17    21    22    1
    18    22    23    1
    19    23    24    1
    20    24    20    1
    21     9     7   am
    22     1     2   ar
    23     3     4   ar
    24     7     8    2
    25     5     6   ar
    26     9    10    1
@<TRIPOS>MOLECULE
MolPort-001-806-469 CSSS00104793216 MCULE-5388989386 PubChem-2809596 ZINC000000118054 ZINC00118054
 24 26 0 0 0
SMALL
GASTEIGER

@<TRIPOS>ATOM
      1 C          11.8943   41.7129    9.1652 C.ar    1  UNL1        0.1725
      2 C          11.7868   40.9236   10.3221 C.ar    1  UNL1        0.0413
      3 C          12.8055   40.0408   10.6799 C.ar    1  UNL1        0.0180
      4 C          13.9517   39.9268    9.8860 C.ar    1  UNL1        0.0535
      5 C          14.0660   40.7118    8.7365 C.ar    1  UNL1        0.0547
      6 C          13.0592   41.6103    8.3656 C.ar    1  UNL1        0.1733
      7 C          16.4192   39.3396   10.2706 C.2     1  UNL1        0.2256
      8 O          16.8383   40.5000   10.0175 O.2     1  UNL1       -0.2748
      9 N          15.0190   39.0282   10.2163 N.am    1  UNL1       -0.2838
     10 H          14.7650   38.1008   10.4279 H       1  UNL1        0.1549
     11 C          17.4028   38.2768   10.6305 C.3     1  UNL1        0.0768
     12 C          17.1963   37.0373    9.7477 C.3     1  UNL1        0.0091
     13 C          18.4595   36.1833    9.7045 C.3     1  UNL1        0.0005
     14 C          19.6408   36.9556    9.0998 C.3     1  UNL1        0.0000
     15 C          19.5497   38.4750    9.2956 C.3     1  UNL1        0.0005
     16 C          18.8386   38.8268   10.6007 C.3     1  UNL1        0.0091
     17 C           9.6433   42.1279    8.2120 C.3     1  UNL1        0.2526
     18 O          10.8551   42.5779    8.8031 O.3     1  UNL1       -0.4684
     19 O          13.2674   42.3586    7.1966 O.3     1  UNL1       -0.4761
     20 C          14.5329   42.5872    6.5882 C.3     1  UNL1        0.1660
     21 C          14.3942   43.5871    5.4493 C.3     1  UNL1        0.0435
     22 C          15.2010   44.8078    5.8396 C.3     1  UNL1        0.0038
     23 C          16.1845   44.3274    6.8793 C.3     1  UNL1        0.0038
     24 C          15.4750   43.2063    7.6019 C.3     1  UNL1        0.0435
@<TRIPOS>BOND
     1    17    18    1
     2     1    18    1
     3     2     3   ar
     4     4     9    1
     5     4     5   ar
     6    11     7    1
     7    11    12    1
     8    12    13    1
     9    13    14    1
    10    14    15    1
    11    15    16    1
    12    16    11    1
    13     6    19    1
    14     6     1   ar
    15    20    19    1
    16    20    21    1
    17    21    22    1
    18    22    23    1
    19    23    24    1
    20    24    20    1
    21     9     7   am
    22     1     2   ar
    23     3     4   ar
    24     7     8    2
    25     5     6   ar
    26     9    10    1
@<TRIPOS>MOLECULE
MolPort-001-806-469 CSSS00104793216 MCULE-5388989386 PubChem-2809596 ZINC000000118054 ZINC00118054
 24 26 0 0 0
SMALL
GASTEIGER

@<TRIPOS>ATOM
      1 C           9.4959   41.8002    8.7888 C.ar    1  UNL1        0.1725
      2 C          10.3550   42.6607    9.4922 C.ar    1  UNL1        0.0413
      3 C          11.7185   42.7003    9.2020 C.ar    1  UNL1        0.0180
      4 C          12.2518   41.8774    8.2042 C.ar    1  UNL1        0.0535
      5 C          11.4020   41.0226    7.4988 C.ar    1  UNL1        0.0547
      6 C          10.0297   40.9750    7.7686 C.ar    1  UNL1        0.1733
      7 C          14.3351   42.8431    7.0601 C.2     1  UNL1        0.2256
      8 O          13.7218   43.8104    6.5364 O.2     1  UNL1       -0.2748
      9 N          13.6481   41.8846    7.8787 N.am    1  UNL1       -0.2838
     10 H          14.1926   41.1562    8.2560 H       1  UNL1        0.1549
     11 C          15.8005   42.6984    6.8185 C.3     1  UNL1        0.0768
     12 C          16.3547   43.9545    6.1307 C.3     1  UNL1        0.0091
     13 C          17.8594   44.0758    6.3496 C.3     1  UNL1        0.0005
     14 C          18.2026   44.2094    7.8402 C.3     1  UNL1        0.0000
     15 C          17.1760   43.5503    8.7712 C.3     1  UNL1        0.0005
     16 C          16.5355   42.3276    8.1175 C.3     1  UNL1        0.0091
     17 C           7.3151   42.9112    9.1853 C.3     1  UNL1        0.2526
     18 O           8.1333   41.7517    9.1050 O.3     1  UNL1       -0.4684
     19 O           9.2569   40.0875    7.0035 O.3     1  UNL1       -0.4761
     20 C           9.7783   39.1319    6.0878 C.3     1  UNL1        0.1660
     21 C           8.7374   38.7981    5.0288 C.3     1  UNL1        0.0435
     22 C           9.2995   39.2642    3.7021 C.3     1  UNL1        0.0038
     23 C          10.7925   39.3581    3.9057 C.3     1  UNL1        0.0038
     24 C          10.9675   39.7276    5.3601 C.3     1  UNL1        0.0435
@<TRIPOS>BOND
     1    17    18    1
     2     1    18    1
     3     2     3   ar
     4     4     9    1
     5     4     5   ar
     6    11     7    1
     7    11    12    1
     8    12    13    1
     9    13    14    1
    10    14    15    1
    11    15    16    1
    12    16    11    1
    13     6    19    1
    14     6     1   ar
    15    20    19    1
    16    20    21    1
    17    21    22    1
    18    22    23    1
    19    23    24    1
    20    24    20    1
    21     9     7   am
    22     1     2   ar
    23     3     4   ar
    24     7     8    2
    25     5     6   ar
    26     9    10    1
@<TRIPOS>MOLECULE
MolPort-001-806-469 CSSS00104793216 MCULE-5388989386 PubChem-2809596 ZINC000000118054 ZINC00118054
 24 26 0 0 0
SMALL
GASTEIGER

@<TRIPOS>ATOM
      1 C           9.8849   39.6504    6.1219 C.ar    1  UNL1        0.1725
      2 C           8.5196   39.6178    5.7934 C.ar    1  UNL1        0.0413
      3 C           7.5576   40.0655    6.6984 C.ar    1  UNL1        0.0180
      4 C           7.9413   40.5523    7.9526 C.ar    1  UNL1        0.0535
      5 C           9.2975   40.5908    8.2836 C.ar    1  UNL1        0.0547
      6 C          10.2785   40.1550    7.3858 C.ar    1  UNL1        0.1733
      7 C           6.0936   42.1344    8.7680 C.2     1  UNL1        0.2256
      8 O           6.0880   42.8303    7.7183 O.2     1  UNL1       -0.2748
      9 N           6.9835   41.0174    8.9130 N.am    1  UNL1       -0.2838
     10 H           6.9308   40.5187    9.7602 H       1  UNL1        0.1549
     11 C           5.1566   42.4856    9.8749 C.3     1  UNL1        0.0768
     12 C           3.7038   42.2388    9.4431 C.3     1  UNL1        0.0091
     13 C           2.7965   42.0686   10.6574 C.3     1  UNL1        0.0005
     14 C           3.2102   40.8562   11.5039 C.3     1  UNL1        0.0000
     15 C           4.7020   40.5113   11.4000 C.3     1  UNL1        0.0005
     16 C           5.5485   41.7623   11.1742 C.3     1  UNL1        0.0091
     17 C          10.5063   38.7003    3.9177 C.3     1  UNL1        0.2526
     18 O          10.8396   39.1763    5.2149 O.3     1  UNL1       -0.4684
     19 O          11.6147   40.2372    7.8076 O.3     1  UNL1       -0.4761
     20 C          12.2224   39.3796    8.7662 C.3     1  UNL1        0.1660
     21 C          13.7374   39.4314    8.6303 C.3     1  UNL1        0.0435
     22 C          14.2717   40.0145    9.9217 C.3     1  UNL1        0.0038
     23 C          13.1820   39.7995   10.9442 C.3     1  UNL1        0.0038
     24 C          11.8912   39.8692   10.1623 C.3     1  UNL1        0.0435
@<TRIPOS>BOND
     1    17    18    1
     2     1    18    1
     3     2     3   ar
     4     4     9    1
     5     4     5   ar
     6    11     7    1
     7    11    12    1
     8    12    13    1
     9    13    14    1
    10    14    15    1
    11    15    16    1
    12    16    11    1
    13     6    19    1
    14     6     1   ar
    15    20    19    1
    16    20    21    1
    17    21    22    1
    18    22    23    1
    19    23    24    1
    20    24    20    1
    21     9     7   am
    22     1     2   ar
    23     3     4   ar
    24     7     8    2
    25     5     6   ar
    26     9    10    1
@<TRIPOS>MOLECULE
MolPort-001-806-469 CSSS00104793216 MCULE-5388989386 PubChem-2809596 ZINC000000118054 ZINC00118054
 24 26 0 0 0
SMALL
GASTEIGER

@<TRIPOS>ATOM
      1 C          15.0880   39.0407    9.2208 C.ar    1  UNL1        0.1725
      2 C          14.0247   38.1245    9.1639 C.ar    1  UNL1        0.0413
      3 C          12.7083   38.5672    9.0374 C.ar    1  UNL1        0.0180
      4 C          12.4277   39.9360    8.9684 C.ar    1  UNL1        0.0535
      5 C          13.4810   40.8517    9.0205 C.ar    1  UNL1        0.0547
      6 C          14.8093   40.4272    9.1378 C.ar    1  UNL1        0.1733
      7 C          10.5423   41.1621    7.7340 C.2     1  UNL1        0.2256
      8 O          11.2451   41.4358    6.7254 O.2     1  UNL1       -0.2748
      9 N          11.0883   40.4321    8.8429 N.am    1  UNL1       -0.2838
     10 H          10.4795   40.2533    9.5957 H       1  UNL1        0.1549
     11 C           9.1194   41.6101    7.7684 C.3     1  UNL1        0.0768
     12 C           8.7242   42.2362    6.4231 C.3     1  UNL1        0.0091
     13 C           7.2108   42.2086    6.2336 C.3     1  UNL1        0.0005
     14 C           6.6712   40.7713    6.2193 C.3     1  UNL1        0.0000
     15 C           7.5277   39.7827    7.0219 C.3     1  UNL1        0.0005
     16 C           8.1955   40.4645    8.2143 C.3     1  UNL1        0.0091
     17 C          16.7717   37.5781   10.3040 C.3     1  UNL1        0.2526
     18 O          16.4030   38.5857    9.3718 O.3     1  UNL1       -0.4684
     19 O          15.7985   41.4222    9.1775 O.3     1  UNL1       -0.4761
     20 C          16.5302   41.8913    8.0513 C.3     1  UNL1        0.1660
     21 C          15.6731   42.8421    7.2282 C.3     1  UNL1        0.0435
     22 C          16.3459   44.1975    7.2864 C.3     1  UNL1        0.0038
     23 C          17.7826   43.9206    7.6584 C.3     1  UNL1        0.0038
     24 C          17.7318   42.6846    8.5258 C.3     1  UNL1        0.0435
@<TRIPOS>BOND
     1    17    18    1
     2     1    18    1
     3     2     3   ar
     4     4     9    1
     5     4     5   ar
     6    11     7    1
     7    11    12    1
     8    12    13    1
     9    13    14    1
    10    14    15    1
    11    15    16    1
    12    16    11    1
    13     6    19    1
    14     6     1   ar
    15    20    19    1
    16    20    21    1
    17    21    22    1
    18    22    23    1
    19    23    24    1
    20    24    20    1
    21     9     7   am
    22     1     2   ar
    23     3     4   ar
    24     7     8    2
    25     5     6   ar
    26     9    10    1
@<TRIPOS>MOLECULE
MolPort-001-806-469 CSSS00104793216 MCULE-5388989386 PubChem-2809596 ZINC000000118054 ZINC00118054
 24 26 0 0 0
SMALL
GASTEIGER

@<TRIPOS>ATOM
      1 C          11.4765   39.5131    9.6394 C.ar    1  UNL1        0.1725
      2 C          11.2355   38.1833   10.0223 C.ar    1  UNL1        0.0413
      3 C          12.1065   37.1628    9.6415 C.ar    1  UNL1        0.0180
      4 C          13.2352   37.4509    8.8669 C.ar    1  UNL1        0.0535
      5 C          13.4823   38.7717    8.4863 C.ar    1  UNL1        0.0547
      6 C          12.6256   39.8110    8.8662 C.ar    1  UNL1        0.1733
      7 C          15.3772   36.0583    9.1006 C.2     1  UNL1        0.2256
      8 O          15.7583   36.6377   10.1520 O.2     1  UNL1       -0.2748
      9 N          14.1524   36.4303    8.4508 N.am    1  UNL1       -0.2838
     10 H          13.9177   35.9327    7.6344 H       1  UNL1        0.1549
     11 C          16.2207   34.9691    8.5274 C.3     1  UNL1        0.0768
     12 C          15.4024   33.6770    8.3890 C.3     1  UNL1        0.0091
     13 C          16.0273   32.7452    7.3556 C.3     1  UNL1        0.0005
     14 C          16.0600   33.3902    5.9626 C.3     1  UNL1        0.0000
     15 C          16.1238   34.9232    5.9939 C.3     1  UNL1        0.0005
     16 C          16.8870   35.4241    7.2183 C.3     1  UNL1        0.0091
     17 C          10.5127   41.0559   11.3240 C.3     1  UNL1        0.2526
     18 O          10.5827   40.5254   10.0072 O.3     1  UNL1       -0.4684
     19 O          12.9604   41.1055    8.4392 O.3     1  UNL1       -0.4761
     20 C          13.7764   41.4084    7.3141 C.3     1  UNL1        0.1660
     21 C          13.0957   42.4501    6.4378 C.3     1  UNL1        0.0435
     22 C          13.9746   43.6831    6.4629 C.3     1  UNL1        0.0038
     23 C          15.3424   43.1968    6.8776 C.3     1  UNL1        0.0038
     24 C          15.0808   42.0193    7.7873 C.3     1  UNL1        0.0435
@<TRIPOS>BOND
     1    17    18    1
     2     1    18    1
     3     2     3   ar
     4     4     9    1
     5     4     5   ar
     6    11     7    1
     7    11    12    1
     8    12    13    1
     9    13    14    1
    10    14    15    1
    11    15    16    1
    12    16    11    1
    13     6    19    1
    14     6     1   ar
    15    20    19    1
    16    20    21    1
    17    21    22    1
    18    22    23    1
    19    23    24    1
    20    24    20    1
    21     9     7   am
    22     1     2   ar
    23     3     4   ar
    24     7     8    2
    25     5     6   ar
    26     9    10    1
@<TRIPOS>MOLECULE
MolPort-001-806-469 CSSS00104793216 MCULE-5388989386 PubChem-2809596 ZINC000000118054 ZINC00118054
 24 26 0 0 0
SMALL
GASTEIGER

@<TRIPOS>ATOM
      1 C          16.7728   39.6795   10.0939 C.ar    1  UNL1        0.1725
      2 C          16.1464   38.9361   11.1079 C.ar    1  UNL1        0.0413
      3 C          14.7710   39.0334   11.3173 C.ar    1  UNL1        0.0180
      4 C          13.9939   39.8791   10.5185 C.ar    1  UNL1        0.0535
      5 C          14.6103   40.6179    9.5063 C.ar    1  UNL1        0.0547
      6 C          15.9873   40.5269    9.2743 C.ar    1  UNL1        0.1733
      7 C          11.6715   40.7699    9.8901 C.2     1  UNL1        0.2256
      8 O          12.0798   41.4143    8.8881 O.2     1  UNL1       -0.2748
      9 N          12.5782   40.0112   10.7043 N.am    1  UNL1       -0.2838
     10 H          12.1874   39.5316   11.4701 H       1  UNL1        0.1549
     11 C          10.2189   40.8028   10.2297 C.3     1  UNL1        0.0768
     12 C          10.0280   41.0211   11.7377 C.3     1  UNL1        0.0091
     13 C           8.6409   41.5817   12.0352 C.3     1  UNL1        0.0005
     14 C           8.4310   42.9486   11.3683 C.3     1  UNL1        0.0000
     15 C           9.2624   43.1474   10.0937 C.3     1  UNL1        0.0005
     16 C           9.4756   41.8272    9.3561 C.3     1  UNL1        0.0091
     17 C          18.9671   38.6263   10.5661 C.3     1  UNL1        0.2526
     18 O          18.1573   39.5918    9.9086 O.3     1  UNL1       -0.4684
     19 O          16.5139   41.3046    8.2311 O.3     1  UNL1       -0.4761
     20 C          16.2915   42.6992    8.0602 C.3     1  UNL1        0.1660
     21 C          17.5827   43.3890    7.6441 C.3     1  UNL1        0.0435
     22 C          17.3527   43.9438    6.2539 C.3     1  UNL1        0.0038
     23 C          15.8542   44.0463    6.1019 C.3     1  UNL1        0.0038
     24 C          15.2971   42.9171    6.9367 C.3     1  UNL1        0.0435
@<TRIPOS>BOND
     1    17    18    1
     2     1    18    1
     3     2     3   ar
     4     4     9    1
     5     4     5   ar
     6    11     7    1
     7    11    12    1
     8    12    13    1
     9    13    14    1
    10    14    15    1
    11    15    16    1
    12    16    11    1
    13     6    19    1
    14     6     1   ar
    15    20    19    1
    16    20    21    1
    17    21    22    1
    18    22    23    1
    19    23    24    1
    20    24    20    1
    21     9     7   am
    22     1     2   ar
    23     3     4   ar
    24     7     8    2
    25     5     6   ar
    26     9    10    1
@<TRIPOS>MOLECULE
MolPort-001-806-469 CSSS00104793216 MCULE-5388989386 PubChem-2809596 ZINC000000118054 ZINC00118054
 24 26 0 0 0
SMALL
GASTEIGER

@<TRIPOS>ATOM
      1 C          15.5006   42.4943    7.4579 C.ar    1  UNL1        0.1725
      2 C          14.4311   43.2011    6.8836 C.ar    1  UNL1        0.0413
      3 C          13.1114   42.8362    7.1484 C.ar    1  UNL1        0.0180
      4 C          12.8339   41.7544    7.9909 C.ar    1  UNL1        0.0535
      5 C          13.8930   41.0501    8.5679 C.ar    1  UNL1        0.0547
      6 C          15.2237   41.4065    8.3221 C.ar    1  UNL1        0.1733
      7 C          10.4027   41.2373    7.3557 C.2     1  UNL1        0.2256
      8 O          10.5580   41.5116    6.1363 O.2     1  UNL1       -0.2748
      9 N          11.4918   41.3443    8.2847 N.am    1  UNL1       -0.2838
     10 H          11.2968   41.1120    9.2214 H       1  UNL1        0.1549
     11 C           9.0599   40.7958    7.8335 C.3     1  UNL1        0.0768
     12 C           7.9848   41.8096    7.4160 C.3     1  UNL1        0.0091
     13 C           6.6031   41.1635    7.4029 C.3     1  UNL1        0.0005
     14 C           6.5300   40.0111    6.3909 C.3     1  UNL1        0.0000
     15 C           7.8802   39.3281    6.1350 C.3     1  UNL1        0.0005
     16 C           8.7637   39.3563    7.3805 C.3     1  UNL1        0.0091
     17 C          17.1574   43.9592    6.3369 C.3     1  UNL1        0.2526
     18 O          16.8211   42.8546    7.1659 O.3     1  UNL1       -0.4684
     19 O          16.2183   40.6415    8.9512 O.3     1  UNL1       -0.4761
     20 C          15.9931   39.7289   10.0189 C.3     1  UNL1        0.1660
     21 C          15.5819   38.3704    9.4697 C.3     1  UNL1        0.0435
     22 C          16.6715   37.3938    9.8599 C.3     1  UNL1        0.0038
     23 C          17.3875   38.0313   11.0262 C.3     1  UNL1        0.0038
     24 C          17.2853   39.5189   10.7836 C.3     1  UNL1        0.0435
@<TRIPOS>BOND
     1    17    18    1
     2     1    18    1
     3     2     3   ar
     4     4     9    1
     5     4     5   ar
     6    11     7    1
     7    11    12    1
     8    12    13    1
     9    13    14    1
    10    14    15    1
    11    15    16    1
    12    16    11    1
    13     6    19    1
    14     6     1   ar
    15    20    19    1
    16    20    21    1
    17    21    22    1
    18    22    23    1
    19    23    24    1
    20    24    20    1
    21     9     7   am
    22     1     2   ar
    23     3     4   ar
    24     7     8    2
    25     5     6   ar
    26     9    10    1
