@<TRIPOS>MOLECULE
MolPort-020-295-152 MCULE-6573795014 PubChem-110267246
 30 33 0 0 0
SMALL
GASTEIGER

@<TRIPOS>ATOM
      1 C          11.6150   41.5336    6.6928 C.ar    1  UNL1        0.2214
      2 C           9.5977   41.0769    7.8445 C.ar    1  UNL1        0.1031
      3 C          10.1972   39.9984    8.4905 C.ar    1  UNL1        0.0355
      4 C          11.5367   39.7117    8.2053 C.ar    1  UNL1        0.0644
      5 N          10.3122   41.8217    6.9620 N.ar    1  UNL1       -0.2120
      6 N          12.2138   40.4842    7.3155 N.ar    1  UNL1       -0.2179
      7 C          12.2418   38.5699    8.8655 C.3     1  UNL1        0.0564
      8 C          11.2503   37.5339    9.3789 C.3     1  UNL1        0.0087
      9 C          12.0086   36.3940   10.0388 C.3     1  UNL1        0.0178
     10 C          12.8960   36.9410   11.1616 C.3     1  UNL1        0.0724
     11 C          13.1368   39.0632   10.0100 C.3     1  UNL1        0.0783
     12 N          13.8401   37.9636   10.6883 N.3     1  UNL1       -0.2673
     13 C          14.8200   37.3574    9.7867 C.3     1  UNL1        0.1187
     14 C          16.2145   37.8051   10.1013 C.ar    1  UNL1        0.0752
     15 C          16.5223   39.1659   10.0259 C.ar    1  UNL1        0.0161
     16 C          17.8195   39.5919   10.3171 C.ar    1  UNL1        0.0028
     17 C          18.7931   38.6596   10.6789 C.ar    1  UNL1        0.0207
     18 C          18.4505   37.3075   10.7435 C.ar    1  UNL1        0.0985
     19 N          17.1813   36.9114   10.4560 N.ar    1  UNL1       -0.2468
     20 N          12.3714   42.3179    5.7627 N.pl3   1  UNL1       -0.2678
     21 H          12.0368   42.3550    4.8375 H       1  UNL1        0.1565
     22 C          15.6988   43.2068    7.1501 C.ar    1  UNL1        0.1331
     23 C          14.9133   44.9848    5.8021 C.ar    1  UNL1        0.2012
     24 C          13.5673   43.0533    6.0478 C.ar    1  UNL1        0.1389
     25 C          14.5333   42.4828    6.8759 C.ar    1  UNL1        0.0686
     26 N          15.8631   44.4417    6.6072 N.ar    1  UNL1       -0.2091
     27 N          13.7769   44.2930    5.5277 N.ar    1  UNL1       -0.2088
     28 C          17.8542   43.4536    8.4597 C.3     1  UNL1        0.1096
     29 N          16.7217   42.6700    7.9922 N.pl3   1  UNL1       -0.3166
     30 H          16.6565   41.7273    8.2683 H       1  UNL1        0.1482
@<TRIPOS>BOND
     1    28    29    1
     2    23    26   ar
     3    24    27   ar
     4    24    20    1
     5    25    22   ar
     6     1     6   ar
     7     2     5   ar
     8     3     4   ar
     9     7     4    1
    10     7     8    1
    11     8     9    1
    12     9    10    1
    13    10    12    1
    14    11    12    1
    15    11     7    1
    16    13    12    1
    17    13    14    1
    18    14    19   ar
    19    15    16   ar
    20    17    18   ar
    21    29    22    1
    22    20     1    1
    23    22    26   ar
    24    23    27   ar
    25    24    25   ar
    26     1     5   ar
    27     2     3   ar
    28     4     6   ar
    29    14    15   ar
    30    16    17   ar
    31    18    19   ar
    32    29    30    1
    33    20    21    1
@<TRIPOS>MOLECULE
MolPort-020-295-152 MCULE-6573795014 PubChem-110267246
 30 33 0 0 0
SMALL
GASTEIGER

@<TRIPOS>ATOM
      1 C          12.0935   41.6189    7.1751 C.ar    1  UNL1        0.2214
      2 C          10.1720   41.2281    8.5016 C.ar    1  UNL1        0.1031
      3 C          10.8788   40.3108    9.2755 C.ar    1  UNL1        0.0355
      4 C          12.2206   40.0680    8.9616 C.ar    1  UNL1        0.0644
      5 N          10.7874   41.8628    7.4708 N.ar    1  UNL1       -0.2120
      6 N          12.7963   40.7263    7.9214 N.ar    1  UNL1       -0.2179
      7 C          13.0378   39.0975    9.7534 C.3     1  UNL1        0.0564
      8 C          13.3576   39.6480   11.1371 C.3     1  UNL1        0.0087
      9 C          14.1855   38.6310   11.9054 C.3     1  UNL1        0.0178
     10 C          15.4553   38.2927   11.1176 C.3     1  UNL1        0.0724
     11 C          14.3316   38.7344    9.0129 C.3     1  UNL1        0.0783
     12 N          15.1652   37.7866    9.7683 N.3     1  UNL1       -0.2673
     13 C          14.4999   36.4866    9.8565 C.3     1  UNL1        0.1187
     14 C          15.0927   35.4944    8.9035 C.ar    1  UNL1        0.0752
     15 C          15.8579   35.9591    7.8308 C.ar    1  UNL1        0.0161
     16 C          16.4139   35.0415    6.9376 C.ar    1  UNL1        0.0028
     17 C          16.2015   33.6745    7.1226 C.ar    1  UNL1        0.0207
     18 C          15.4309   33.2454    8.2050 C.ar    1  UNL1        0.0985
     19 N          14.8972   34.1546    9.0647 N.ar    1  UNL1       -0.2468
     20 N          12.7455   42.2873    6.0885 N.pl3   1  UNL1       -0.2678
     21 H          12.3911   42.1179    5.1857 H       1  UNL1        0.1565
     22 C          16.0282   43.7019    7.0929 C.ar    1  UNL1        0.1331
     23 C          14.9554   45.1955    5.6051 C.ar    1  UNL1        0.2012
     24 C          13.8631   43.1782    6.1878 C.ar    1  UNL1        0.1389
     25 C          14.9402   42.8270    7.0007 C.ar    1  UNL1        0.0686
     26 N          16.0118   44.8667    6.3932 N.ar    1  UNL1       -0.2091
     27 N          13.8925   44.3555    5.5064 N.ar    1  UNL1       -0.2088
     28 C          17.3847   42.0741    8.4828 C.3     1  UNL1        0.1096
     29 N          17.1587   43.3921    7.9112 N.pl3   1  UNL1       -0.3166
     30 H          17.8140   44.1033    8.0962 H       1  UNL1        0.1482
@<TRIPOS>BOND
     1    28    29    1
     2    23    26   ar
     3    24    27   ar
     4    24    20    1
     5    25    22   ar
     6     1     6   ar
     7     2     5   ar
     8     3     4   ar
     9     7     4    1
    10     7     8    1
    11     8     9    1
    12     9    10    1
    13    10    12    1
    14    11    12    1
    15    11     7    1
    16    13    12    1
    17    13    14    1
    18    14    19   ar
    19    15    16   ar
    20    17    18   ar
    21    29    22    1
    22    20     1    1
    23    22    26   ar
    24    23    27   ar
    25    24    25   ar
    26     1     5   ar
    27     2     3   ar
    28     4     6   ar
    29    14    15   ar
    30    16    17   ar
    31    18    19   ar
    32    29    30    1
    33    20    21    1
@<TRIPOS>MOLECULE
MolPort-020-295-152 MCULE-6573795014 PubChem-110267246
 30 33 0 0 0
SMALL
GASTEIGER

@<TRIPOS>ATOM
      1 C          12.5039   42.1271    8.0942 C.ar    1  UNL1        0.2214
      2 C          11.1259   41.9516   10.0112 C.ar    1  UNL1        0.1031
      3 C          11.8885   40.8827   10.4757 C.ar    1  UNL1        0.0355
      4 C          12.9748   40.4544    9.7047 C.ar    1  UNL1        0.0644
      5 N          11.4444   42.5521    8.8356 N.ar    1  UNL1       -0.2120
      6 N          13.2575   41.0851    8.5345 N.ar    1  UNL1       -0.2179
      7 C          13.8363   39.3145   10.1463 C.3     1  UNL1        0.0564
      8 C          14.2921   39.4957   11.5883 C.3     1  UNL1        0.0087
      9 C          15.1609   38.3168   11.9945 C.3     1  UNL1        0.0178
     10 C          16.3465   38.1890   11.0324 C.3     1  UNL1        0.0724
     11 C          15.0494   39.1507    9.2212 C.3     1  UNL1        0.0783
     12 N          15.9246   38.0419    9.6320 N.3     1  UNL1       -0.2673
     13 C          15.2390   36.7623    9.4503 C.3     1  UNL1        0.1187
     14 C          13.7499   36.9210    9.4849 C.ar    1  UNL1        0.0752
     15 C          13.0389   36.4068   10.5723 C.ar    1  UNL1        0.0161
     16 C          11.6509   36.5501   10.6127 C.ar    1  UNL1        0.0028
     17 C          10.9883   37.2021    9.5716 C.ar    1  UNL1        0.0207
     18 C          11.7303   37.7029    8.5001 C.ar    1  UNL1        0.0985
     19 N          13.0822   37.5536    8.4783 N.ar    1  UNL1       -0.2468
     20 N          12.8425   42.7589    6.8538 N.pl3   1  UNL1       -0.2678
     21 H          12.1996   42.6602    6.1148 H       1  UNL1        0.1565
     22 C          16.4022   43.8136    6.8032 C.ar    1  UNL1        0.1331
     23 C          15.1022   45.3917    5.6137 C.ar    1  UNL1        0.2012
     24 C          14.0258   43.5203    6.5842 C.ar    1  UNL1        0.1389
     25 C          15.2508   43.0649    7.0703 C.ar    1  UNL1        0.0686
     26 N          16.3026   44.9603    6.0809 N.ar    1  UNL1       -0.2091
     27 N          13.9763   44.6747    5.8657 N.ar    1  UNL1       -0.2088
     28 C          17.8632   42.2711    8.1846 C.3     1  UNL1        0.1096
     29 N          17.6838   43.3933    7.2771 N.pl3   1  UNL1       -0.3166
     30 H          18.4811   43.8859    6.9754 H       1  UNL1        0.1482
@<TRIPOS>BOND
     1    28    29    1
     2    23    26   ar
     3    24    27   ar
     4    24    20    1
     5    25    22   ar
     6     1     6   ar
     7     2     5   ar
     8     3     4   ar
     9     7     4    1
    10     7     8    1
    11     8     9    1
    12     9    10    1
    13    10    12    1
    14    11    12    1
    15    11     7    1
    16    13    12    1
    17    13    14    1
    18    14    19   ar
    19    15    16   ar
    20    17    18   ar
    21    29    22    1
    22    20     1    1
    23    22    26   ar
    24    23    27   ar
    25    24    25   ar
    26     1     5   ar
    27     2     3   ar
    28     4     6   ar
    29    14    15   ar
    30    16    17   ar
    31    18    19   ar
    32    29    30    1
    33    20    21    1
@<TRIPOS>MOLECULE
MolPort-020-295-152 MCULE-6573795014 PubChem-110267246
 30 33 0 0 0
SMALL
GASTEIGER

@<TRIPOS>ATOM
      1 C          14.6859   40.3388    9.6024 C.ar    1  UNL1        0.2214
      2 C          13.6365   39.2982   11.4518 C.ar    1  UNL1        0.1031
      3 C          12.4157   39.8641   11.0922 C.ar    1  UNL1        0.0355
      4 C          12.3683   40.6801    9.9565 C.ar    1  UNL1        0.0644
      5 N          14.7442   39.5436   10.7056 N.ar    1  UNL1       -0.2120
      6 N          13.5016   40.8981    9.2389 N.ar    1  UNL1       -0.2179
      7 C          11.0897   41.3167    9.5132 C.3     1  UNL1        0.0564
      8 C          10.4474   42.1077   10.6453 C.3     1  UNL1        0.0087
      9 C           9.1554   42.7371   10.1510 C.3     1  UNL1        0.0178
     10 C           8.2204   41.6496    9.6118 C.3     1  UNL1        0.0724
     11 C          10.1095   40.2662    8.9749 C.3     1  UNL1        0.0783
     12 N           8.8355   40.8574    8.5371 N.3     1  UNL1       -0.2673
     13 C           9.0464   41.6972    7.3577 C.3     1  UNL1        0.1187
     14 C           9.4355   40.8848    6.1608 C.ar    1  UNL1        0.0752
     15 C           8.5937   39.8520    5.7403 C.ar    1  UNL1        0.0161
     16 C           8.9486   39.0897    4.6259 C.ar    1  UNL1        0.0028
     17 C          10.1356   39.3640    3.9449 C.ar    1  UNL1        0.0207
     18 C          10.9534   40.4031    4.3933 C.ar    1  UNL1        0.0985
     19 N          10.5908   41.1349    5.4812 N.ar    1  UNL1       -0.2468
     20 N          15.8527   40.5991    8.8130 N.pl3   1  UNL1       -0.2678
     21 H          16.3948   39.8202    8.5509 H       1  UNL1        0.1565
     22 C          15.9392   43.8923    7.1001 C.ar    1  UNL1        0.1331
     23 C          17.9437   43.5924    8.3196 C.ar    1  UNL1        0.2012
     24 C          16.3075   41.8827    8.3679 C.ar    1  UNL1        0.1389
     25 C          15.4886   42.6396    7.5309 C.ar    1  UNL1        0.0686
     26 N          17.1567   44.3410    7.5039 N.ar    1  UNL1       -0.2091
     27 N          17.5187   42.3745    8.7453 N.ar    1  UNL1       -0.2088
     28 C          13.9870   44.2042    5.5147 C.3     1  UNL1        0.1096
     29 N          15.1407   44.7101    6.2415 N.pl3   1  UNL1       -0.3166
     30 H          15.3827   45.6587    6.1375 H       1  UNL1        0.1482
@<TRIPOS>BOND
     1    28    29    1
     2    23    26   ar
     3    24    27   ar
     4    24    20    1
     5    25    22   ar
     6     1     6   ar
     7     2     5   ar
     8     3     4   ar
     9     7     4    1
    10     7     8    1
    11     8     9    1
    12     9    10    1
    13    10    12    1
    14    11    12    1
    15    11     7    1
    16    13    12    1
    17    13    14    1
    18    14    19   ar
    19    15    16   ar
    20    17    18   ar
    21    29    22    1
    22    20     1    1
    23    22    26   ar
    24    23    27   ar
    25    24    25   ar
    26     1     5   ar
    27     2     3   ar
    28     4     6   ar
    29    14    15   ar
    30    16    17   ar
    31    18    19   ar
    32    29    30    1
    33    20    21    1
@<TRIPOS>MOLECULE
MolPort-020-295-152 MCULE-6573795014 PubChem-110267246
 30 33 0 0 0
SMALL
GASTEIGER

@<TRIPOS>ATOM
      1 C          12.4700   41.9881    6.4153 C.ar    1  UNL1        0.2214
      2 C          14.6988   42.6766    6.8188 C.ar    1  UNL1        0.1031
      3 C          14.8232   41.7231    7.8264 C.ar    1  UNL1        0.0355
      4 C          13.7250   40.9024    8.1063 C.ar    1  UNL1        0.0644
      5 N          13.5316   42.7924    6.1345 N.ar    1  UNL1       -0.2120
      6 N          12.5763   41.0528    7.3958 N.ar    1  UNL1       -0.2179
      7 C          13.7918   39.8567    9.1734 C.3     1  UNL1        0.0564
      8 C          13.0919   40.3216   10.4439 C.3     1  UNL1        0.0087
      9 C          13.1824   39.2303   11.4976 C.3     1  UNL1        0.0178
     10 C          14.6507   38.8738   11.7520 C.3     1  UNL1        0.0724
     11 C          15.2457   39.4720    9.4770 C.3     1  UNL1        0.0783
     12 N          15.3493   38.4501   10.5300 N.3     1  UNL1       -0.2673
     13 C          14.7995   37.1793   10.0574 C.3     1  UNL1        0.1187
     14 C          15.7555   36.4634    9.1533 C.ar    1  UNL1        0.0752
     15 C          15.3062   36.0204    7.9066 C.ar    1  UNL1        0.0161
     16 C          16.1903   35.3521    7.0577 C.ar    1  UNL1        0.0028
     17 C          17.5088   35.1328    7.4596 C.ar    1  UNL1        0.0207
     18 C          17.9235   35.5885    8.7125 C.ar    1  UNL1        0.0985
     19 N          17.0476   36.2377    9.5259 N.ar    1  UNL1       -0.2468
     20 N          11.2376   42.1076    5.6947 N.pl3   1  UNL1       -0.2678
     21 H          10.9379   43.0193    5.4751 H       1  UNL1        0.1565
     22 C           8.4106   39.7056    5.5377 C.ar    1  UNL1        0.1331
     23 C           9.9254   39.2463    3.7799 C.ar    1  UNL1        0.2012
     24 C          10.3988   41.0295    5.2627 C.ar    1  UNL1        0.1389
     25 C           9.2249   40.7600    5.9653 C.ar    1  UNL1        0.0686
     26 N           8.7788   38.9721    4.4546 N.ar    1  UNL1       -0.2091
     27 N          10.7254   40.2670    4.1841 N.ar    1  UNL1       -0.2088
     28 C           6.4187   40.3698    6.9566 C.3     1  UNL1        0.1096
     29 N           7.1962   39.3854    6.2207 N.pl3   1  UNL1       -0.3166
     30 H           6.8715   38.4564    6.1915 H       1  UNL1        0.1482
@<TRIPOS>BOND
     1    28    29    1
     2    23    26   ar
     3    24    27   ar
     4    24    20    1
     5    25    22   ar
     6     1     6   ar
     7     2     5   ar
     8     3     4   ar
     9     7     4    1
    10     7     8    1
    11     8     9    1
    12     9    10    1
    13    10    12    1
    14    11    12    1
    15    11     7    1
    16    13    12    1
    17    13    14    1
    18    14    19   ar
    19    15    16   ar
    20    17    18   ar
    21    29    22    1
    22    20     1    1
    23    22    26   ar
    24    23    27   ar
    25    24    25   ar
    26     1     5   ar
    27     2     3   ar
    28     4     6   ar
    29    14    15   ar
    30    16    17   ar
    31    18    19   ar
    32    29    30    1
    33    20    21    1
@<TRIPOS>MOLECULE
MolPort-020-295-152 MCULE-6573795014 PubChem-110267246
 30 33 0 0 0
SMALL
GASTEIGER

@<TRIPOS>ATOM
      1 C           8.1601   41.5563   11.9092 C.ar    1  UNL1        0.2214
      2 C          10.1716   41.1908   13.1029 C.ar    1  UNL1        0.1031
      3 C          10.8675   41.0375   11.9061 C.ar    1  UNL1        0.0355
      4 C          10.1598   41.1526   10.7045 C.ar    1  UNL1        0.0644
      5 N           8.8380   41.4459   13.0845 N.ar    1  UNL1       -0.2120
      6 N           8.8256   41.4092   10.7332 N.ar    1  UNL1       -0.2179
      7 C          10.8460   41.0019    9.3842 C.3     1  UNL1        0.0564
      8 C          10.5559   39.6405    8.7657 C.3     1  UNL1        0.0087
      9 C          11.2696   39.5320    7.4283 C.3     1  UNL1        0.0178
     10 C          12.7719   39.7637    7.6203 C.3     1  UNL1        0.0724
     11 C          12.3595   41.2118    9.5232 C.3     1  UNL1        0.0783
     12 N          13.0683   41.0620    8.2429 N.3     1  UNL1       -0.2673
     13 C          12.7017   42.1464    7.3319 C.3     1  UNL1        0.1187
     14 C          13.8956   42.9516    6.9190 C.ar    1  UNL1        0.0752
     15 C          15.1597   42.5729    7.3782 C.ar    1  UNL1        0.0161
     16 C          16.2778   43.3176    6.9987 C.ar    1  UNL1        0.0028
     17 C          16.1242   44.4288    6.1682 C.ar    1  UNL1        0.0207
     18 C          14.8460   44.7790    5.7287 C.ar    1  UNL1        0.0985
     19 N          13.7684   44.0411    6.1092 N.ar    1  UNL1       -0.2468
     20 N           6.7533   41.8258   11.8867 N.pl3   1  UNL1       -0.2678
     21 H           6.3703   42.2558   12.6852 H       1  UNL1        0.1565
     22 C           5.4516   41.1808    8.4697 C.ar    1  UNL1        0.1331
     23 C           3.6753   41.0297   10.0245 C.ar    1  UNL1        0.2012
     24 C           5.8494   41.5305   10.8151 C.ar    1  UNL1        0.1389
     25 C           6.3401   41.4696    9.5113 C.ar    1  UNL1        0.0686
     26 N           4.1390   40.9672    8.7492 N.ar    1  UNL1       -0.2091
     27 N           4.5268   41.3093   11.0453 N.ar    1  UNL1       -0.2088
     28 C           6.4589   39.8964    6.5312 C.3     1  UNL1        0.1096
     29 N           5.9004   41.1059    7.1144 N.pl3   1  UNL1       -0.3166
     30 H           5.8282   41.9096    6.5504 H       1  UNL1        0.1482
@<TRIPOS>BOND
     1    28    29    1
     2    23    26   ar
     3    24    27   ar
     4    24    20    1
     5    25    22   ar
     6     1     6   ar
     7     2     5   ar
     8     3     4   ar
     9     7     4    1
    10     7     8    1
    11     8     9    1
    12     9    10    1
    13    10    12    1
    14    11    12    1
    15    11     7    1
    16    13    12    1
    17    13    14    1
    18    14    19   ar
    19    15    16   ar
    20    17    18   ar
    21    29    22    1
    22    20     1    1
    23    22    26   ar
    24    23    27   ar
    25    24    25   ar
    26     1     5   ar
    27     2     3   ar
    28     4     6   ar
    29    14    15   ar
    30    16    17   ar
    31    18    19   ar
    32    29    30    1
    33    20    21    1
@<TRIPOS>MOLECULE
MolPort-020-295-152 MCULE-6573795014 PubChem-110267246
 30 33 0 0 0
SMALL
GASTEIGER

@<TRIPOS>ATOM
      1 C           7.7001   41.7909   10.6323 C.ar    1  UNL1        0.2214
      2 C           9.3951   43.3338   11.2252 C.ar    1  UNL1        0.1031
      3 C          10.0824   43.0487   10.0477 C.ar    1  UNL1        0.0355
      4 C           9.5355   42.1080    9.1680 C.ar    1  UNL1        0.0644
      5 N           8.2228   42.7040   11.4960 N.ar    1  UNL1       -0.2120
      6 N           8.3594   41.5023    9.4792 N.ar    1  UNL1       -0.2179
      7 C          10.2203   41.7573    7.8855 C.3     1  UNL1        0.0564
      8 C           9.5469   40.5704    7.2090 C.3     1  UNL1        0.0087
      9 C          10.2724   40.2509    5.9123 C.3     1  UNL1        0.0178
     10 C          11.7533   39.9810    6.1980 C.3     1  UNL1        0.0724
     11 C          11.7081   41.4636    8.1183 C.3     1  UNL1        0.0783
     12 N          12.4120   41.1061    6.8771 N.3     1  UNL1       -0.2673
     13 C          12.4751   42.2607    5.9808 C.3     1  UNL1        0.1187
     14 C          13.7328   43.0497    6.1802 C.ar    1  UNL1        0.0752
     15 C          14.7674   42.4951    6.9380 C.ar    1  UNL1        0.0161
     16 C          15.9429   43.2234    7.1292 C.ar    1  UNL1        0.0028
     17 C          16.0739   44.4932    6.5649 C.ar    1  UNL1        0.0207
     18 C          15.0196   45.0169    5.8141 C.ar    1  UNL1        0.0985
     19 N          13.8818   44.2922    5.6389 N.ar    1  UNL1       -0.2468
     20 N           6.4635   41.1253   10.9152 N.pl3   1  UNL1       -0.2678
     21 H           6.4962   40.3822   11.5601 H       1  UNL1        0.1565
     22 C           3.7802   42.9103    9.0712 C.ar    1  UNL1        0.1331
     23 C           2.9073   40.9069    9.9765 C.ar    1  UNL1        0.2012
     24 C           5.1838   41.4359   10.3507 C.ar    1  UNL1        0.1389
     25 C           5.0328   42.6135    9.6195 C.ar    1  UNL1        0.0686
     26 N           2.7452   42.0506    9.2617 N.ar    1  UNL1       -0.2091
     27 N           4.1178   40.6063   10.5145 N.ar    1  UNL1       -0.2088
     28 C           4.6494   44.8328    7.6674 C.3     1  UNL1        0.1096
     29 N           3.5692   44.1036    8.3127 N.pl3   1  UNL1       -0.3166
     30 H           2.6510   44.4473    8.2232 H       1  UNL1        0.1482
@<TRIPOS>BOND
     1    28    29    1
     2    23    26   ar
     3    24    27   ar
     4    24    20    1
     5    25    22   ar
     6     1     6   ar
     7     2     5   ar
     8     3     4   ar
     9     7     4    1
    10     7     8    1
    11     8     9    1
    12     9    10    1
    13    10    12    1
    14    11    12    1
    15    11     7    1
    16    13    12    1
    17    13    14    1
    18    14    19   ar
    19    15    16   ar
    20    17    18   ar
    21    29    22    1
    22    20     1    1
    23    22    26   ar
    24    23    27   ar
    25    24    25   ar
    26     1     5   ar
    27     2     3   ar
    28     4     6   ar
    29    14    15   ar
    30    16    17   ar
    31    18    19   ar
    32    29    30    1
    33    20    21    1
@<TRIPOS>MOLECULE
MolPort-020-295-152 MCULE-6573795014 PubChem-110267246
 30 33 0 0 0
SMALL
GASTEIGER

@<TRIPOS>ATOM
      1 C          12.3838   42.3260    6.2534 C.ar    1  UNL1        0.2214
      2 C          14.5603   43.2070    6.5549 C.ar    1  UNL1        0.1031
      3 C          14.8369   42.2286    7.5069 C.ar    1  UNL1        0.0355
      4 C          13.8398   41.2958    7.8128 C.ar    1  UNL1        0.0644
      5 N          13.3460   43.2391    5.9480 N.ar    1  UNL1       -0.2120
      6 N          12.6390   41.3652    7.1803 N.ar    1  UNL1       -0.2179
      7 C          14.0716   40.2178    8.8232 C.3     1  UNL1        0.0564
      8 C          13.1428   40.3765   10.0199 C.3     1  UNL1        0.0087
      9 C          13.4110   39.2618   11.0175 C.3     1  UNL1        0.0178
     10 C          14.8857   39.2793   11.4327 C.3     1  UNL1        0.0724
     11 C          15.5351   40.2003    9.2837 C.3     1  UNL1        0.0783
     12 N          15.7971   39.1558   10.2859 N.3     1  UNL1       -0.2673
     13 C          15.6611   37.8301    9.6823 C.3     1  UNL1        0.1187
     14 C          14.3491   37.1952   10.0280 C.ar    1  UNL1        0.0752
     15 C          14.2204   36.5276   11.2487 C.ar    1  UNL1        0.0161
     16 C          13.0013   35.9328   11.5789 C.ar    1  UNL1        0.0028
     17 C          11.9270   36.0092   10.6912 C.ar    1  UNL1        0.0207
     18 C          12.0913   36.6836    9.4797 C.ar    1  UNL1        0.0985
     19 N          13.2868   37.2569    9.1754 N.ar    1  UNL1       -0.2468
     20 N          11.1019   42.3571    5.6145 N.pl3   1  UNL1       -0.2678
     21 H          10.7409   43.2440    5.3856 H       1  UNL1        0.1565
     22 C           8.3542   39.8607    5.6771 C.ar    1  UNL1        0.1331
     23 C           9.8631   39.3191    3.9378 C.ar    1  UNL1        0.2012
     24 C          10.2943   41.2232    5.2761 C.ar    1  UNL1        0.1389
     25 C           9.1381   40.9699    6.0131 C.ar    1  UNL1        0.0686
     26 N           8.7339   39.0599    4.6470 N.ar    1  UNL1       -0.2091
     27 N          10.6335   40.3925    4.2532 N.ar    1  UNL1       -0.2088
     28 C           6.4741   40.5202    7.2431 C.3     1  UNL1        0.1096
     29 N           7.1589   39.5540    6.3990 N.pl3   1  UNL1       -0.3166
     30 H           6.7824   38.6477    6.3211 H       1  UNL1        0.1482
@<TRIPOS>BOND
     1    28    29    1
     2    23    26   ar
     3    24    27   ar
     4    24    20    1
     5    25    22   ar
     6     1     6   ar
     7     2     5   ar
     8     3     4   ar
     9     7     4    1
    10     7     8    1
    11     8     9    1
    12     9    10    1
    13    10    12    1
    14    11    12    1
    15    11     7    1
    16    13    12    1
    17    13    14    1
    18    14    19   ar
    19    15    16   ar
    20    17    18   ar
    21    29    22    1
    22    20     1    1
    23    22    26   ar
    24    23    27   ar
    25    24    25   ar
    26     1     5   ar
    27     2     3   ar
    28     4     6   ar
    29    14    15   ar
    30    16    17   ar
    31    18    19   ar
    32    29    30    1
    33    20    21    1
@<TRIPOS>MOLECULE
MolPort-020-295-152 MCULE-6573795014 PubChem-110267246
 30 33 0 0 0
SMALL
GASTEIGER

@<TRIPOS>ATOM
      1 C          12.3875   41.7497    6.4151 C.ar    1  UNL1        0.2214
      2 C          14.4181   42.9371    6.6812 C.ar    1  UNL1        0.1031
      3 C          14.8326   42.0328    7.6561 C.ar    1  UNL1        0.0355
      4 C          13.9782   40.9767    7.9915 C.ar    1  UNL1        0.0644
      5 N          13.2101   42.7814    6.0809 N.ar    1  UNL1       -0.2120
      6 N          12.7782   40.8590    7.3646 N.ar    1  UNL1       -0.2179
      7 C          14.3625   39.9689    9.0276 C.3     1  UNL1        0.0564
      8 C          13.4991   40.1055   10.2749 C.3     1  UNL1        0.0087
      9 C          13.9219   39.0637   11.2974 C.3     1  UNL1        0.0178
     10 C          15.4126   39.2214   11.6144 C.3     1  UNL1        0.0724
     11 C          15.8477   40.0929    9.3920 C.3     1  UNL1        0.0783
     12 N          16.2588   39.1207   10.4166 N.3     1  UNL1       -0.2673
     13 C          16.1989   37.7619    9.8775 C.3     1  UNL1        0.1187
     14 C          14.8696   37.1211   10.1348 C.ar    1  UNL1        0.0752
     15 C          13.9276   37.0778    9.1038 C.ar    1  UNL1        0.0161
     16 C          12.6860   36.4828    9.3348 C.ar    1  UNL1        0.0028
     17 C          12.3975   35.9393   10.5875 C.ar    1  UNL1        0.0207
     18 C          13.3621   36.0008   11.5951 C.ar    1  UNL1        0.0985
     19 N          14.5663   36.5848   11.3511 N.ar    1  UNL1       -0.2468
     20 N          11.1127   41.5826    5.7831 N.pl3   1  UNL1       -0.2678
     21 H          11.1181   41.3323    4.8310 H       1  UNL1        0.1565
     22 C           8.4073   41.5055    8.3251 C.ar    1  UNL1        0.1331
     23 C           7.5665   42.4288    6.3162 C.ar    1  UNL1        0.2012
     24 C           9.8307   41.7443    6.4020 C.ar    1  UNL1        0.1389
     25 C           9.6621   41.3447    7.7272 C.ar    1  UNL1        0.0686
     26 N           7.3874   42.0440    7.6065 N.ar    1  UNL1       -0.2091
     27 N           8.7793   42.2783    5.7232 N.ar    1  UNL1       -0.2088
     28 C           7.8567   42.0612   10.7355 C.3     1  UNL1        0.1096
     29 N           8.1785   41.1132    9.6806 N.pl3   1  UNL1       -0.3166
     30 H           8.2417   40.1579    9.9104 H       1  UNL1        0.1482
@<TRIPOS>BOND
     1    28    29    1
     2    23    26   ar
     3    24    27   ar
     4    24    20    1
     5    25    22   ar
     6     1     6   ar
     7     2     5   ar
     8     3     4   ar
     9     7     4    1
    10     7     8    1
    11     8     9    1
    12     9    10    1
    13    10    12    1
    14    11    12    1
    15    11     7    1
    16    13    12    1
    17    13    14    1
    18    14    19   ar
    19    15    16   ar
    20    17    18   ar
    21    29    22    1
    22    20     1    1
    23    22    26   ar
    24    23    27   ar
    25    24    25   ar
    26     1     5   ar
    27     2     3   ar
    28     4     6   ar
    29    14    15   ar
    30    16    17   ar
    31    18    19   ar
    32    29    30    1
    33    20    21    1
@<TRIPOS>MOLECULE
MolPort-020-295-152 MCULE-6573795014 PubChem-110267246
 30 33 0 0 0
SMALL
GASTEIGER

@<TRIPOS>ATOM
      1 C           7.6093   41.8807   11.0831 C.ar    1  UNL1        0.2214
      2 C           8.8431   41.3334   13.0280 C.ar    1  UNL1        0.1031
      3 C           9.9804   41.1064   12.2566 C.ar    1  UNL1        0.0355
      4 C           9.8913   41.2802   10.8711 C.ar    1  UNL1        0.0644
      5 N           7.6839   41.7143   12.4320 N.ar    1  UNL1       -0.2120
      6 N           8.7108   41.6629   10.3171 N.ar    1  UNL1       -0.2179
      7 C          11.0749   41.0558    9.9848 C.3     1  UNL1        0.0564
      8 C          11.3638   42.2838    9.1312 C.3     1  UNL1        0.0087
      9 C          12.5719   42.0125    8.2501 C.3     1  UNL1        0.0178
     10 C          12.3214   40.7673    7.3932 C.3     1  UNL1        0.0724
     11 C          10.8693   39.8241    9.0932 C.3     1  UNL1        0.0783
     12 N          12.0127   39.5784    8.2008 N.3     1  UNL1       -0.2673
     13 C          13.1875   39.1868    8.9799 C.3     1  UNL1        0.1187
     14 C          13.1382   37.7412    9.3693 C.ar    1  UNL1        0.0752
     15 C          12.0590   37.2804   10.1278 C.ar    1  UNL1        0.0161
     16 C          12.0051   35.9347   10.4953 C.ar    1  UNL1        0.0028
     17 C          13.0248   35.0654   10.1044 C.ar    1  UNL1        0.0207
     18 C          14.0886   35.5603    9.3476 C.ar    1  UNL1        0.0985
     19 N          14.1238   36.8748    8.9990 N.ar    1  UNL1       -0.2468
     20 N           6.3879   42.2828   10.4516 N.pl3   1  UNL1       -0.2678
     21 H           5.5542   42.1104   10.9461 H       1  UNL1        0.1565
     22 C           6.9858   43.1425    6.8893 C.ar    1  UNL1        0.1331
     23 C           5.2140   44.4673    7.7265 C.ar    1  UNL1        0.2012
     24 C           6.2616   42.9115    9.1704 C.ar    1  UNL1        0.1389
     25 C           7.1148   42.5242    8.1378 C.ar    1  UNL1        0.0686
     26 N           6.0384   44.1002    6.7112 N.ar    1  UNL1       -0.2091
     27 N           5.3283   43.8754    8.9438 N.ar    1  UNL1       -0.2088
     28 C           8.9902   41.9144    5.9426 C.3     1  UNL1        0.1096
     29 N           7.8340   42.7842    5.7957 N.pl3   1  UNL1       -0.3166
     30 H           7.6259   43.1425    4.9026 H       1  UNL1        0.1482
@<TRIPOS>BOND
     1    28    29    1
     2    23    26   ar
     3    24    27   ar
     4    24    20    1
     5    25    22   ar
     6     1     6   ar
     7     2     5   ar
     8     3     4   ar
     9     7     4    1
    10     7     8    1
    11     8     9    1
    12     9    10    1
    13    10    12    1
    14    11    12    1
    15    11     7    1
    16    13    12    1
    17    13    14    1
    18    14    19   ar
    19    15    16   ar
    20    17    18   ar
    21    29    22    1
    22    20     1    1
    23    22    26   ar
    24    23    27   ar
    25    24    25   ar
    26     1     5   ar
    27     2     3   ar
    28     4     6   ar
    29    14    15   ar
    30    16    17   ar
    31    18    19   ar
    32    29    30    1
    33    20    21    1
